@<TRIPOS>MOLECULE
G02
   46    47     1     0     0
SMALL
resp


@<TRIPOS>ATOM
      1 C1          -1.5240     1.2520    -0.1250 c3         1 G02      -0.060842
      2 C2          -1.5240    -1.2520    -0.1240 c3         1 G02      -0.060842
      3 C3           1.5240     1.2520     0.1250 c3         1 G02      -0.060842
      4 C4           1.5240    -1.2520     0.1240 c3         1 G02      -0.060842
      5 C5          -2.9570     1.2410     0.4080 c3         1 G02      -0.117367
      6 C6          -2.9570    -1.2400     0.4100 c3         1 G02      -0.117367
      7 C7           2.9570     1.2410    -0.4080 c3         1 G02      -0.117367
      8 C8           2.9570    -1.2400    -0.4100 c3         1 G02      -0.117367
      9 C9          -0.7210     0.0000     0.2900 c3         1 G02      -0.053492
     10 C10          0.7210     0.0000    -0.2900 c3         1 G02      -0.053492
     11 C11         -4.0510    -0.0010    -1.4700 c3         1 G02      -0.383291
     12 C12         -5.0660     0.0000     0.7530 c3         1 G02      -0.383291
     13 C13          4.0510    -0.0010     1.4700 c3         1 G02      -0.383291
     14 C14          5.0660     0.0000    -0.7530 c3         1 G02      -0.383291
     15 N1          -3.7500    -0.0000     0.0090 n4         1 G02       0.182990
     16 N2           3.7500    -0.0000    -0.0090 n4         1 G02       0.182990
     17 H1          -1.5190     1.3630    -1.2170 hc         1 G02       0.075586
     18 H2          -1.0720     2.1660     0.2740 hc         1 G02       0.075586
     19 H3          -1.0720    -2.1660     0.2760 hc         1 G02       0.075586
     20 H4          -1.5190    -1.3640    -1.2160 hc         1 G02       0.075586
     21 H5           1.5190     1.3630     1.2170 hc         1 G02       0.075586
     22 H6           1.0720     2.1660    -0.2740 hc         1 G02       0.075586
     23 H7           1.0720    -2.1660    -0.2760 hc         1 G02       0.075586
     24 H8           1.5190    -1.3640     1.2160 hc         1 G02       0.075586
     25 H9          -2.9600     1.2530     1.5020 hx         1 G02       0.124503
     26 H10         -3.5250     2.1060     0.0570 hx         1 G02       0.124503
     27 H11         -3.5250    -2.1060     0.0590 hx         1 G02       0.124503
     28 H12         -2.9600    -1.2520     1.5040 hx         1 G02       0.124503
     29 H13          2.9600     1.2530    -1.5020 hx         1 G02       0.124503
     30 H14          3.5250     2.1060    -0.0570 hx         1 G02       0.124503
     31 H15          3.5250    -2.1060    -0.0590 hx         1 G02       0.124503
     32 H16          2.9600    -1.2520    -1.5040 hx         1 G02       0.124503
     33 H17         -0.6400     0.0010     1.3890 hc         1 G02       0.082163
     34 H18          0.6400     0.0010    -1.3890 hc         1 G02       0.082163
     35 H19         -4.6320    -0.8930    -1.7070 hx         1 G02       0.185163
     36 H20         -4.6330     0.8920    -1.7070 hx         1 G02       0.185163
     37 H21         -3.1260    -0.0010    -2.0430 hx         1 G02       0.185163
     38 H22         -5.6280    -0.8930     0.4760 hx         1 G02       0.185163
     39 H23         -4.8700     0.0010     1.8260 hx         1 G02       0.185163
     40 H24         -5.6280     0.8940     0.4750 hx         1 G02       0.185163
     41 H25          4.6320    -0.8930     1.7070 hx         1 G02       0.185163
     42 H26          4.6330     0.8920     1.7070 hx         1 G02       0.185163
     43 H27          3.1260    -0.0010     2.0430 hx         1 G02       0.185163
     44 H28          5.6280    -0.8930    -0.4760 hx         1 G02       0.185163
     45 H29          4.8700     0.0010    -1.8260 hx         1 G02       0.185163
     46 H30          5.6280     0.8940    -0.4750 hx         1 G02       0.185163
@<TRIPOS>BOND
     1     1     5 1   
     2     1     9 1   
     3     1    17 1   
     4     1    18 1   
     5     2     6 1   
     6     2     9 1   
     7     2    19 1   
     8     2    20 1   
     9     3     7 1   
    10     3    10 1   
    11     3    21 1   
    12     3    22 1   
    13     4     8 1   
    14     4    10 1   
    15     4    23 1   
    16     4    24 1   
    17     5    15 1   
    18     5    25 1   
    19     5    26 1   
    20     6    15 1   
    21     6    27 1   
    22     6    28 1   
    23     7    16 1   
    24     7    29 1   
    25     7    30 1   
    26     8    16 1   
    27     8    31 1   
    28     8    32 1   
    29     9    10 1   
    30     9    33 1   
    31    10    34 1   
    32    11    15 1   
    33    11    35 1   
    34    11    36 1   
    35    11    37 1   
    36    12    15 1   
    37    12    38 1   
    38    12    39 1   
    39    12    40 1   
    40    13    16 1   
    41    13    41 1   
    42    13    42 1   
    43    13    43 1   
    44    14    16 1   
    45    14    44 1   
    46    14    45 1   
    47    14    46 1   
@<TRIPOS>SUBSTRUCTURE
     1 G02         1 TEMP              0 ****  ****    0 ROOT
