@<TRIPOS>MOLECULE
G04
   20    19     1     0     0
SMALL
resp


@<TRIPOS>ATOM
      1 C1           0.4820     0.9080    -1.6770 c3         1 G04      -0.491005
      2 C2           0.4990     1.2710     1.4220 c3         1 G04      -0.491005
      3 C3           1.8910    -1.2340     0.1370 c3         1 G04      -0.491005
      4 C4          -1.1390    -0.9860     0.1230 c3         1 G04      -0.290729
      5 N1          -2.3920    -0.1150     0.0150 nz         1 G04      -0.290844
      6 Si1          0.5180     0.0360    -0.0040 Si         1 G04       0.813913
      7 H1           0.4140     0.2000    -2.5120 hc         1 G04       0.109189
      8 H2          -0.3340     1.6370    -1.7790 hc         1 G04       0.109189
      9 H3           1.4100     1.4750    -1.8160 hc         1 G04       0.109189
     10 H4           0.4440     0.7740     2.3980 hc         1 G04       0.109189
     11 H5           1.4270     1.8560     1.4140 hc         1 G04       0.109189
     12 H6          -0.3190     2.0020     1.3640 hc         1 G04       0.109189
     13 H7           1.8570    -1.7710     1.0910 hc         1 G04       0.109189
     14 H8           1.8510    -1.9730    -0.6720 hc         1 G04       0.109189
     15 H9           2.8670    -0.7380     0.0770 hc         1 G04       0.109189
     16 H10         -1.2220    -1.7280    -0.6770 hx         1 G04       0.142132
     17 H11         -1.2230    -1.5110     1.0780 hx         1 G04       0.142132
     18 H12         -2.4120     0.5910     0.7610 hn         1 G04       0.324571
     19 H13         -2.4100     0.3920    -0.8780 hn         1 G04       0.324571
     20 H14         -3.2630    -0.6560     0.0800 hn         1 G04       0.324571
@<TRIPOS>BOND
     1     1     6 1   
     2     1     7 1   
     3     1     8 1   
     4     1     9 1   
     5     2     6 1   
     6     2    10 1   
     7     2    11 1   
     8     2    12 1   
     9     3     6 1   
    10     3    13 1   
    11     3    14 1   
    12     3    15 1   
    13     4     5 1   
    14     4     6 1   
    15     4    16 1   
    16     4    17 1   
    17     5    18 1   
    18     5    19 1   
    19     5    20 1   
@<TRIPOS>SUBSTRUCTURE
     1 G04         1 TEMP              0 ****  ****    0 ROOT
