@<TRIPOS>MOLECULE
G09
   30    32     1     0     0
SMALL
resp


@<TRIPOS>ATOM
      1 C1          -0.2370     2.1010     0.0140 c3         1 G09      -0.390577
      2 C2           1.1930     0.4600    -1.2580 c3         1 G09      -0.346565
      3 C3           1.1830     0.4410     1.2720 c3         1 G09      -0.346565
      4 C4          -1.3190     0.2100    -1.2620 c3         1 G09      -0.404098
      5 C5          -1.3320     0.1950     1.2540 c3         1 G09      -0.404098
      6 C6           0.1030    -1.4450    -0.0110 c3         1 G09      -0.367872
      7 C7          -0.1560     1.2220    -1.2510 c3         1 G09       0.313476
      8 C8          -0.1640     1.2050     1.2680 c3         1 G09       0.313476
      9 C9           1.2410    -0.4180     0.0000 c3         1 G09       0.623474
     10 C10         -1.2560    -0.6820    -0.0110 c3         1 G09       0.622908
     11 N1           2.5870    -1.1900    -0.0030 nz         1 G09      -0.767829
     12 O1          -2.3240    -1.6020    -0.1080 oh         1 G09      -0.718905
     13 H1           0.5750     2.8380     0.0230 hc         1 G09       0.097126
     14 H2          -1.1770     2.6640     0.0140 hc         1 G09       0.097126
     15 H3           1.2730    -0.1600    -2.1610 hc         1 G09       0.093335
     16 H4           2.0300     1.1710    -1.2630 hc         1 G09       0.093335
     17 H5           2.0190     1.1530     1.2940 hc         1 G09       0.093335
     18 H6           1.2590    -0.1920     2.1670 hc         1 G09       0.093335
     19 H7          -2.2810     0.7320    -1.2730 hc         1 G09       0.103755
     20 H8          -1.2890    -0.4210    -2.1590 hc         1 G09       0.103755
     21 H9          -1.3010    -0.4390     2.1520 hc         1 G09       0.103755
     22 H10         -2.2920     0.7220     1.2650 hc         1 G09       0.103755
     23 H11          0.1460    -2.0830    -0.9020 hc         1 G09       0.094208
     24 H12          0.1570    -2.0960     0.8740 hc         1 G09       0.094208
     25 H13         -0.2010     1.8480    -2.1480 hc         1 G09       0.013372
     26 H14         -0.2150     1.8180     2.1740 hc         1 G09       0.013372
     27 H15          3.3860    -0.5440    -0.0000 hn         1 G09       0.419012
     28 H16          2.6680    -1.7840    -0.8380 hn         1 G09       0.419012
     29 H17          2.6700    -1.7960     0.8220 hn         1 G09       0.419012
     30 H18         -2.4710    -2.0150     0.7590 ho         1 G09       0.418365
@<TRIPOS>BOND
     1     1     7 1   
     2     1     8 1   
     3     1    13 1   
     4     1    14 1   
     5     2     7 1   
     6     2     9 1   
     7     2    15 1   
     8     2    16 1   
     9     3     8 1   
    10     3     9 1   
    11     3    17 1   
    12     3    18 1   
    13     4     7 1   
    14     4    10 1   
    15     4    19 1   
    16     4    20 1   
    17     5     8 1   
    18     5    10 1   
    19     5    21 1   
    20     5    22 1   
    21     6     9 1   
    22     6    10 1   
    23     6    23 1   
    24     6    24 1   
    25     7    25 1   
    26     8    26 1   
    27     9    11 1   
    28    10    12 1   
    29    11    27 1   
    30    11    28 1   
    31    11    29 1   
    32    12    30 1   
@<TRIPOS>SUBSTRUCTURE
     1 G09         1 TEMP              0 ****  ****    0 ROOT
