@<TRIPOS>MOLECULE
G11
   20    19     1     0     0
SMALL
resp


@<TRIPOS>ATOM
      1 C1          -1.6650    -0.9630    -0.0060 c3         1 G11      -0.342483
      2 C2          -0.5140     0.8810     1.2740 c3         1 G11      -0.342483
      3 C3          -0.5150     0.8980    -1.2620 c3         1 G11      -0.342483
      4 C4           0.7900    -0.8740    -0.0060 c3         1 G11      -0.086376
      5 C5          -0.4690     0.0130     0.0000 c3         1 G11       0.421145
      6 N1           2.0810    -0.0490    -0.0000 nz         1 G11      -0.360274
      7 H1          -1.6640    -1.5980    -0.8990 hc         1 G11       0.090033
      8 H2          -1.6640    -1.6100     0.8780 hc         1 G11       0.090033
      9 H3          -2.6020    -0.3980    -0.0020 hc         1 G11       0.090033
     10 H4           0.2820     1.6380     1.3090 hc         1 G11       0.090033
     11 H5          -0.4550     0.2720     2.1840 hc         1 G11       0.090033
     12 H6          -1.4560     1.4360     1.3140 hc         1 G11       0.090033
     13 H7           0.2820     1.6560    -1.2870 hc         1 G11       0.090033
     14 H8          -0.4570     0.3020    -2.1800 hc         1 G11       0.090033
     15 H9          -1.4570     1.4540    -1.2930 hc         1 G11       0.090033
     16 H10          0.8470    -1.4980    -0.9010 hx         1 G11       0.115818
     17 H11          0.8470    -1.5110     0.8800 hx         1 G11       0.115818
     18 H12          2.9170    -0.6460    -0.0050 hn         1 G11       0.337007
     19 H13          2.1260     0.5520     0.8310 hn         1 G11       0.337007
     20 H14          2.1260     0.5640    -0.8230 hn         1 G11       0.337007
@<TRIPOS>BOND
     1     1     5 1   
     2     1     7 1   
     3     1     8 1   
     4     1     9 1   
     5     2     5 1   
     6     2    10 1   
     7     2    11 1   
     8     2    12 1   
     9     3     5 1   
    10     3    13 1   
    11     3    14 1   
    12     3    15 1   
    13     4     5 1   
    14     4     6 1   
    15     4    16 1   
    16     4    17 1   
    17     6    18 1   
    18     6    19 1   
    19     6    20 1   
@<TRIPOS>SUBSTRUCTURE
     1 G11         1 TEMP              0 ****  ****    0 ROOT
