@<TRIPOS>MOLECULE
WP6
  150   156     1     0     0
SMALL
resp


@<TRIPOS>ATOM
      1 C1           2.0590    -4.9830    -1.2110 ca         1 WP6       0.231772
      2 C2           3.2860    -4.2740     1.2110 ca         1 WP6       0.231772
      3 C3           1.3460    -5.2240    -0.0120 ca         1 WP6      -0.086312
      4 C4           3.2200    -4.1820    -1.1810 ca         1 WP6      -0.274681
      5 C5           3.8510    -3.7770     0.0110 ca         1 WP6      -0.086312
      6 C6           2.0120    -4.8790     1.1800 ca         1 WP6      -0.274681
      7 H1           3.6810    -3.8870    -2.1200 ha         1 WP6       0.122260
      8 H2           1.5260    -5.1300     2.1190 ha         1 WP6       0.122260
      9 C7           0.0000    -5.9880    -0.0000 c3         1 WP6      -0.044297
     10 H3          -0.0120    -6.6330     0.8850 hc         1 WP6       0.084709
     11 H4           0.0130    -6.6330    -0.8860 hc         1 WP6       0.084709
     12 O1           1.5810    -5.5690    -2.3720 os         1 WP6      -0.264689
     13 O2           4.0320    -4.1520     2.3720 os         1 WP6      -0.264689
     14 C8           2.5110    -5.9950    -3.3800 c3         1 WP6      -0.005021
     15 H5           3.5310    -5.9730    -2.9720 h1         1 WP6       0.040150
     16 H6           2.4900    -5.2810    -4.2160 h1         1 WP6       0.040150
     17 C9           3.9360    -5.1700     3.3800 c3         1 WP6      -0.005021
     18 H7           3.3300    -4.7950     4.2160 h1         1 WP6       0.040150
     19 H8           3.4080    -6.0420     2.9730 h1         1 WP6       0.040150
     20 C10          2.2940    -7.4420    -3.9740 c          1 WP6       0.790960
     21 C11          5.2990    -5.7060     3.9730 c          1 WP6       0.790960
     22 O3           1.5760    -8.2640    -3.3640 o          1 WP6      -0.828575
     23 O4           6.3690    -5.4940     3.3620 o          1 WP6      -0.828575
     24 O5           2.9690    -7.6230    -5.0350 o          1 WP6      -0.828575
     25 O6           5.1190    -6.3810     5.0340 o          1 WP6      -0.828575
     26 C12         -3.2870    -4.2760    -1.2110 ca         1 WP6       0.231772
     27 C13         -2.0580    -4.9820     1.2110 ca         1 WP6       0.231772
     28 C14         -3.8510    -3.7780    -0.0110 ca         1 WP6      -0.086312
     29 C15         -2.0120    -4.8800    -1.1800 ca         1 WP6      -0.274681
     30 C16         -1.3460    -5.2240     0.0120 ca         1 WP6      -0.086312
     31 C17         -3.2190    -4.1810     1.1810 ca         1 WP6      -0.274681
     32 H9          -1.5270    -5.1330    -2.1200 ha         1 WP6       0.122260
     33 H10         -3.6790    -3.8860     2.1200 ha         1 WP6       0.122260
     34 C18         -5.1850    -2.9940     0.0000 c3         1 WP6      -0.044297
     35 H11         -5.7500    -3.3060     0.8860 hc         1 WP6       0.084709
     36 H12         -5.7380    -3.3280    -0.8850 hc         1 WP6       0.084709
     37 O7          -4.0330    -4.1550    -2.3720 os         1 WP6      -0.264689
     38 O8          -1.5790    -5.5670     2.3730 os         1 WP6      -0.264689
     39 C19         -3.9360    -5.1740    -3.3800 c3         1 WP6      -0.005021
     40 H13         -3.4080    -6.0460    -2.9710 h1         1 WP6       0.040150
     41 H14         -3.3280    -4.7990    -4.2150 h1         1 WP6       0.040150
     42 C20         -2.5080    -5.9910     3.3820 c3         1 WP6      -0.005021
     43 H15         -2.4860    -5.2780     4.2170 h1         1 WP6       0.040150
     44 H16         -3.5280    -5.9700     2.9750 h1         1 WP6       0.040150
     45 C21         -5.2980    -5.7090    -3.9740 c          1 WP6       0.790960
     46 C22         -2.2910    -7.4390     3.9760 c          1 WP6       0.790960
     47 O9          -5.1170    -6.3850    -5.0350 o          1 WP6      -0.828575
     48 O10         -2.9660    -7.6190     5.0380 o          1 WP6      -0.828575
     49 O11         -6.3690    -5.4980    -3.3650 o          1 WP6      -0.828575
     50 O12         -1.5740    -8.2610     3.3660 o          1 WP6      -0.828575
     51 C23         -5.3450     0.7080    -1.2110 ca         1 WP6       0.231772
     52 C24         -5.3450    -0.7090     1.2110 ca         1 WP6       0.231772
     53 C25         -5.1970     1.4460    -0.0120 ca         1 WP6      -0.086312
     54 C26         -5.2310    -0.6980    -1.1800 ca         1 WP6      -0.274681
     55 C27         -5.1970    -1.4470     0.0120 ca         1 WP6      -0.086312
     56 C28         -5.2310     0.6970     1.1800 ca         1 WP6      -0.274681
     57 H17         -5.2070    -1.2440    -2.1190 ha         1 WP6       0.122260
     58 H18         -5.2060     1.2440     2.1190 ha         1 WP6       0.122260
     59 C29         -5.1860     2.9940    -0.0000 c3         1 WP6      -0.044297
     60 H19         -5.7380     3.3270     0.8850 hc         1 WP6       0.084709
     61 H20         -5.7510     3.3050    -0.8860 hc         1 WP6       0.084709
     62 O13         -5.6140     1.4150    -2.3720 os         1 WP6      -0.264689
     63 O14         -5.6120    -1.4160     2.3720 os         1 WP6      -0.264689
     64 C30         -6.4460     0.8220    -3.3810 c3         1 WP6      -0.005021
     65 H21         -6.9370    -0.0720    -2.9730 h1         1 WP6       0.040150
     66 H22         -5.8170     0.4830    -4.2160 h1         1 WP6       0.040150
     67 C31         -6.4460    -0.8230     3.3810 c3         1 WP6      -0.005021
     68 H23         -5.8170    -0.4840     4.2160 h1         1 WP6       0.040150
     69 H24         -6.9370     0.0700     2.9730 h1         1 WP6       0.040150
     70 C32         -7.5900     1.7330    -3.9760 c          1 WP6       0.790960
     71 C33         -7.5910    -1.7350     3.9740 c          1 WP6       0.790960
     72 O15         -8.0840     1.2390    -5.0370 o          1 WP6      -0.828575
     73 O16         -8.0850    -1.2410     5.0360 o          1 WP6      -0.828575
     74 O17         -7.9440     2.7660    -3.3660 o          1 WP6      -0.828575
     75 O18         -7.9430    -2.7680     3.3650 o          1 WP6      -0.828575
     76 C34         -2.0590     4.9830    -1.2110 ca         1 WP6       0.231772
     77 C35         -3.2860     4.2740     1.2110 ca         1 WP6       0.231772
     78 C36         -1.3460     5.2240    -0.0120 ca         1 WP6      -0.086312
     79 C37         -3.2200     4.1820    -1.1810 ca         1 WP6      -0.274681
     80 C38         -3.8510     3.7770     0.0110 ca         1 WP6      -0.086312
     81 C39         -2.0120     4.8790     1.1800 ca         1 WP6      -0.274681
     82 H25         -3.6810     3.8870    -2.1200 ha         1 WP6       0.122260
     83 H26         -1.5260     5.1300     2.1190 ha         1 WP6       0.122260
     84 C40         -0.0000     5.9880    -0.0000 c3         1 WP6      -0.044297
     85 H27          0.0120     6.6330     0.8850 hc         1 WP6       0.084709
     86 H28         -0.0130     6.6330    -0.8860 hc         1 WP6       0.084709
     87 O19         -1.5810     5.5690    -2.3720 os         1 WP6      -0.264689
     88 O20         -4.0320     4.1520     2.3720 os         1 WP6      -0.264689
     89 C41         -2.5110     5.9950    -3.3800 c3         1 WP6      -0.005021
     90 H29         -3.5310     5.9730    -2.9720 h1         1 WP6       0.040150
     91 H30         -2.4900     5.2810    -4.2160 h1         1 WP6       0.040150
     92 C42         -3.9360     5.1700     3.3800 c3         1 WP6      -0.005021
     93 H31         -3.3300     4.7950     4.2160 h1         1 WP6       0.040150
     94 H32         -3.4080     6.0420     2.9730 h1         1 WP6       0.040150
     95 C43         -2.2940     7.4420    -3.9740 c          1 WP6       0.790960
     96 C44         -5.2990     5.7060     3.9730 c          1 WP6       0.790960
     97 O21         -2.9690     7.6230    -5.0350 o          1 WP6      -0.828575
     98 O22         -5.1190     6.3810     5.0340 o          1 WP6      -0.828575
     99 O23         -1.5760     8.2640    -3.3640 o          1 WP6      -0.828575
    100 O24         -6.3690     5.4940     3.3620 o          1 WP6      -0.828575
    101 C45          3.2870     4.2760    -1.2110 ca         1 WP6       0.231772
    102 C46          2.0580     4.9820     1.2110 ca         1 WP6       0.231772
    103 C47          3.8510     3.7780    -0.0110 ca         1 WP6      -0.086312
    104 C48          2.0120     4.8800    -1.1800 ca         1 WP6      -0.274681
    105 C49          1.3460     5.2240     0.0120 ca         1 WP6      -0.086312
    106 C50          3.2190     4.1810     1.1810 ca         1 WP6      -0.274681
    107 H33          1.5270     5.1330    -2.1200 ha         1 WP6       0.122260
    108 H34          3.6790     3.8860     2.1200 ha         1 WP6       0.122260
    109 C51          5.1850     2.9940     0.0000 c3         1 WP6      -0.044297
    110 H35          5.7500     3.3060     0.8860 hc         1 WP6       0.084709
    111 H36          5.7380     3.3280    -0.8850 hc         1 WP6       0.084709
    112 O25          4.0330     4.1550    -2.3720 os         1 WP6      -0.264689
    113 O26          1.5790     5.5670     2.3730 os         1 WP6      -0.264689
    114 C52          3.9360     5.1740    -3.3800 c3         1 WP6      -0.005021
    115 H37          3.4080     6.0460    -2.9710 h1         1 WP6       0.040150
    116 H38          3.3280     4.7990    -4.2150 h1         1 WP6       0.040150
    117 C53          2.5080     5.9910     3.3820 c3         1 WP6      -0.005021
    118 H39          2.4860     5.2780     4.2170 h1         1 WP6       0.040150
    119 H40          3.5280     5.9700     2.9750 h1         1 WP6       0.040150
    120 C54          5.2980     5.7090    -3.9740 c          1 WP6       0.790960
    121 C55          2.2910     7.4390     3.9760 c          1 WP6       0.790960
    122 O27          5.1170     6.3850    -5.0350 o          1 WP6      -0.828575
    123 O28          2.9660     7.6190     5.0380 o          1 WP6      -0.828575
    124 O29          6.3690     5.4980    -3.3650 o          1 WP6      -0.828575
    125 O30          1.5740     8.2610     3.3660 o          1 WP6      -0.828575
    126 C56          5.3450    -0.7080    -1.2110 ca         1 WP6       0.231772
    127 C57          5.3450     0.7090     1.2110 ca         1 WP6       0.231772
    128 C58          5.1970    -1.4460    -0.0120 ca         1 WP6      -0.086312
    129 C59          5.2310     0.6980    -1.1800 ca         1 WP6      -0.274681
    130 C60          5.1970     1.4470     0.0120 ca         1 WP6      -0.086312
    131 C61          5.2310    -0.6970     1.1800 ca         1 WP6      -0.274681
    132 H41          5.2070     1.2440    -2.1190 ha         1 WP6       0.122260
    133 H42          5.2060    -1.2440     2.1190 ha         1 WP6       0.122260
    134 C62          5.1860    -2.9940    -0.0000 c3         1 WP6      -0.044297
    135 H43          5.7380    -3.3270     0.8850 hc         1 WP6       0.084709
    136 H44          5.7510    -3.3050    -0.8860 hc         1 WP6       0.084709
    137 O31          5.6140    -1.4150    -2.3720 os         1 WP6      -0.264689
    138 O32          5.6120     1.4160     2.3720 os         1 WP6      -0.264689
    139 C63          6.4460    -0.8220    -3.3810 c3         1 WP6      -0.005021
    140 H45          6.9370     0.0720    -2.9730 h1         1 WP6       0.040150
    141 H46          5.8170    -0.4830    -4.2160 h1         1 WP6       0.040150
    142 C64          6.4460     0.8230     3.3810 c3         1 WP6      -0.005021
    143 H47          5.8170     0.4840     4.2160 h1         1 WP6       0.040150
    144 H48          6.9370    -0.0700     2.9730 h1         1 WP6       0.040150
    145 C65          7.5900    -1.7330    -3.9760 c          1 WP6       0.790960
    146 C66          7.5910     1.7350     3.9740 c          1 WP6       0.790960
    147 O33          8.0840    -1.2390    -5.0370 o          1 WP6      -0.828575
    148 O34          8.0850     1.2410     5.0360 o          1 WP6      -0.828575
    149 O35          7.9440    -2.7660    -3.3660 o          1 WP6      -0.828575
    150 O36          7.9430     2.7680     3.3650 o          1 WP6      -0.828575
@<TRIPOS>BOND
     1     1     3 ar  
     2     1     4 ar  
     3     1    12 1   
     4     2     5 ar  
     5     2     6 ar  
     6     2    13 1   
     7     3     6 ar  
     8     3     9 1   
     9     4     5 ar  
    10     4     7 1   
    11     5   134 1   
    12     6     8 1   
    13     9    10 1   
    14     9    11 1   
    15     9    30 1   
    16    12    14 1   
    17    13    17 1   
    18    14    15 1   
    19    14    16 1   
    20    14    20 1   
    21    17    18 1   
    22    17    19 1   
    23    17    21 1   
    24    20    22 1   
    25    20    24 1   
    26    21    23 1   
    27    21    25 1   
    28    26    28 ar  
    29    26    29 ar  
    30    26    37 1   
    31    27    30 ar  
    32    27    31 ar  
    33    27    38 1   
    34    28    31 ar  
    35    28    34 1   
    36    29    30 ar  
    37    29    32 1   
    38    31    33 1   
    39    34    35 1   
    40    34    36 1   
    41    34    55 1   
    42    37    39 1   
    43    38    42 1   
    44    39    40 1   
    45    39    41 1   
    46    39    45 1   
    47    42    43 1   
    48    42    44 1   
    49    42    46 1   
    50    45    47 1   
    51    45    49 1   
    52    46    48 1   
    53    46    50 1   
    54    51    53 ar  
    55    51    54 ar  
    56    51    62 1   
    57    52    55 ar  
    58    52    56 ar  
    59    52    63 1   
    60    53    56 ar  
    61    53    59 1   
    62    54    55 ar  
    63    54    57 1   
    64    56    58 1   
    65    59    60 1   
    66    59    61 1   
    67    59    80 1   
    68    62    64 1   
    69    63    67 1   
    70    64    65 1   
    71    64    66 1   
    72    64    70 1   
    73    67    68 1   
    74    67    69 1   
    75    67    71 1   
    76    70    72 1   
    77    70    74 1   
    78    71    73 1   
    79    71    75 1   
    80    76    78 ar  
    81    76    79 ar  
    82    76    87 1   
    83    77    80 ar  
    84    77    81 ar  
    85    77    88 1   
    86    78    81 ar  
    87    78    84 1   
    88    79    80 ar  
    89    79    82 1   
    90    81    83 1   
    91    84    85 1   
    92    84    86 1   
    93    84   105 1   
    94    87    89 1   
    95    88    92 1   
    96    89    90 1   
    97    89    91 1   
    98    89    95 1   
    99    92    93 1   
   100    92    94 1   
   101    92    96 1   
   102    95    97 1   
   103    95    99 1   
   104    96    98 1   
   105    96   100 1   
   106   101   103 ar  
   107   101   104 ar  
   108   101   112 1   
   109   102   105 ar  
   110   102   106 ar  
   111   102   113 1   
   112   103   106 ar  
   113   103   109 1   
   114   104   105 ar  
   115   104   107 1   
   116   106   108 1   
   117   109   110 1   
   118   109   111 1   
   119   109   130 1   
   120   112   114 1   
   121   113   117 1   
   122   114   115 1   
   123   114   116 1   
   124   114   120 1   
   125   117   118 1   
   126   117   119 1   
   127   117   121 1   
   128   120   122 1   
   129   120   124 1   
   130   121   123 1   
   131   121   125 1   
   132   126   128 ar  
   133   126   129 ar  
   134   126   137 1   
   135   127   130 ar  
   136   127   131 ar  
   137   127   138 1   
   138   128   131 ar  
   139   128   134 1   
   140   129   130 ar  
   141   129   132 1   
   142   131   133 1   
   143   134   135 1   
   144   134   136 1   
   145   137   139 1   
   146   138   142 1   
   147   139   140 1   
   148   139   141 1   
   149   139   145 1   
   150   142   143 1   
   151   142   144 1   
   152   142   146 1   
   153   145   147 1   
   154   145   149 1   
   155   146   148 1   
   156   146   150 1   
@<TRIPOS>SUBSTRUCTURE
     1 WP6         1 TEMP              0 ****  ****    0 ROOT
