@<TRIPOS>MOLECULE
G01
   39    39     1     0     0
SMALL
resp


@<TRIPOS>ATOM
      1 C1           0.4130     2.2190    -0.5890 c3         1 G01       0.033974
      2 C2           1.9020     2.2230    -0.1830 c3         1 G01      -0.260416
      3 C3          -0.5740     2.0560     0.5820 c3         1 G01      -0.260416
      4 C4           2.4330     0.9130     0.4350 c3         1 G01       0.026425
      5 C5          -2.0590     1.9340     0.1750 c3         1 G01       0.026425
      6 C6           2.4890    -0.2820    -0.5460 c3         1 G01      -0.025188
      7 C7          -2.4920     0.6950    -0.6430 c3         1 G01      -0.025188
      8 C8           2.2790    -1.6730     0.0920 c3         1 G01      -0.142213
      9 C9          -2.7620    -0.6160     0.1330 c3         1 G01      -0.142213
     10 C10          0.9480    -1.8530     0.8570 c3         1 G01      -0.467040
     11 C11         -1.5820    -1.2540     0.8980 c3         1 G01      -0.467040
     12 C12         -0.3050    -1.4450     0.0790 c3         1 G01       0.357376
     13 N1          -0.5690    -2.4990    -1.0190 nz         1 G01      -0.826088
     14 H1           0.1910     3.1630    -1.1030 hc         1 G01       0.026850
     15 H2           0.2430     1.4400    -1.3490 hc         1 G01       0.026850
     16 H3           2.5060     2.4740    -1.0660 hc         1 G01       0.092632
     17 H4           2.0680     3.0350     0.5360 hc         1 G01       0.092632
     18 H5          -0.2820     1.2050     1.2100 hc         1 G01       0.092632
     19 H6          -0.4780     2.9340     1.2340 hc         1 G01       0.092632
     20 H7           3.4390     1.0910     0.8300 hc         1 G01       0.041500
     21 H8           1.8230     0.6650     1.3120 hc         1 G01       0.041500
     22 H9          -2.6800     1.9900     1.0790 hc         1 G01       0.041500
     23 H10         -2.3170     2.8220    -0.4160 hc         1 G01       0.041500
     24 H11          1.7560    -0.1370    -1.3530 hc         1 G01       0.011705
     25 H12          3.4600    -0.2890    -1.0550 hc         1 G01       0.011705
     26 H13         -3.4350     0.9420    -1.1460 hc         1 G01       0.011705
     27 H14         -1.7800     0.5210    -1.4630 hc         1 G01       0.011705
     28 H15          2.3800    -2.4440    -0.6890 hc         1 G01       0.100478
     29 H16          3.0910    -1.8840     0.7980 hc         1 G01       0.100478
     30 H17         -3.5600    -0.4380     0.8630 hc         1 G01       0.100478
     31 H18         -3.1920    -1.3490    -0.5700 hc         1 G01       0.100478
     32 H19          0.8500    -2.8870     1.2200 hc         1 G01       0.168761
     33 H20          0.9610    -1.2330     1.7590 hc         1 G01       0.168761
     34 H21         -1.3090    -0.6160     1.7430 hc         1 G01       0.168761
     35 H22         -1.8930    -2.2120     1.3420 hc         1 G01       0.168761
     36 H23         -0.1050    -0.5380    -0.4890 hx         1 G01       0.181921
     37 H24         -0.7860    -3.4120    -0.6010 hn         1 G01       0.425225
     38 H25          0.2540    -2.6200    -1.6210 hn         1 G01       0.425225
     39 H26         -1.3640    -2.2290    -1.6100 hn         1 G01       0.425225
@<TRIPOS>BOND
     1     1     2 1   
     2     1     3 1   
     3     1    14 1   
     4     1    15 1   
     5     2     4 1   
     6     2    16 1   
     7     2    17 1   
     8     3     5 1   
     9     3    18 1   
    10     3    19 1   
    11     4     6 1   
    12     4    20 1   
    13     4    21 1   
    14     5     7 1   
    15     5    22 1   
    16     5    23 1   
    17     6     8 1   
    18     6    24 1   
    19     6    25 1   
    20     7     9 1   
    21     7    26 1   
    22     7    27 1   
    23     8    10 1   
    24     8    28 1   
    25     8    29 1   
    26     9    11 1   
    27     9    30 1   
    28     9    31 1   
    29    10    12 1   
    30    10    32 1   
    31    10    33 1   
    32    11    12 1   
    33    11    34 1   
    34    11    35 1   
    35    12    13 1   
    36    12    36 1   
    37    13    37 1   
    38    13    38 1   
    39    13    39 1   
@<TRIPOS>SUBSTRUCTURE
     1 G01         1 TEMP              0 ****  ****    0 ROOT
