@<TRIPOS>MOLECULE
G05
   56    58     1     0     0
SMALL
resp


@<TRIPOS>ATOM
      1 C1          -0.0000    -2.4660     0.0010 c3         1 G05      -0.026871
      2 C2          -1.2550    -0.6820     1.2650 c3         1 G05      -0.069531
      3 C3           1.2550    -0.6830     1.2650 c3         1 G05      -0.069531
      4 C4          -1.2670    -0.7000    -1.2530 c3         1 G05      -0.069531
      5 C5           1.2670    -0.7000    -1.2530 c3         1 G05      -0.069531
      6 C6           0.0000     1.0940    -0.0250 c3         1 G05      -0.353167
      7 C7          -0.0000    -1.5950     1.2700 c3         1 G05       0.215530
      8 C8          -0.0000    -1.5950    -1.2700 c3         1 G05       0.215530
      9 C9          -1.2710     0.1970     0.0000 c3         1 G05       0.155293
     10 C10          1.2700     0.1960     0.0000 c3         1 G05       0.155293
     11 C11         -0.0000    -2.4620     2.5370 c3         1 G05      -0.548320
     12 C12         -0.0000    -2.4630    -2.5370 c3         1 G05      -0.548320
     13 C13         -2.5120     2.2170    -1.0540 c3         1 G05      -0.354342
     14 C14         -2.7920     1.8170     1.3350 c3         1 G05      -0.354342
     15 C15         -3.8330     0.3220    -0.2820 c3         1 G05      -0.354342
     16 C16          2.5120     2.2160    -1.0540 c3         1 G05      -0.354342
     17 C17          3.8330     0.3220    -0.2820 c3         1 G05      -0.354342
     18 C18          2.7920     1.8170     1.3350 c3         1 G05      -0.354342
     19 N1          -2.5820     1.1340     0.0010 n4         1 G05      -0.074971
     20 N2           2.5820     1.1330     0.0010 n4         1 G05      -0.074971
     21 H1           0.8770    -3.1250     0.0010 hc         1 G05       0.043275
     22 H2          -0.8780    -3.1250     0.0010 hc         1 G05       0.043275
     23 H3          -2.1460    -1.3170     1.3150 hc         1 G05       0.057362
     24 H4          -1.2370    -0.0700     2.1730 hc         1 G05       0.057362
     25 H5           1.2370    -0.0710     2.1730 hc         1 G05       0.057362
     26 H6           2.1460    -1.3170     1.3150 hc         1 G05       0.057362
     27 H7          -1.2970    -0.1030    -2.1730 hc         1 G05       0.057362
     28 H8          -2.1380    -1.3600    -1.2630 hc         1 G05       0.057362
     29 H9           2.1380    -1.3610    -1.2630 hc         1 G05       0.057362
     30 H10          1.2970    -0.1030    -2.1730 hc         1 G05       0.057362
     31 H11          0.0000     1.6920    -0.9380 hc         1 G05       0.111847
     32 H12          0.0000     1.7760     0.8300 hc         1 G05       0.111847
     33 H13         -0.0000    -1.8500     3.4470 hc         1 G05       0.157075
     34 H14          0.8830    -3.1090     2.5670 hc         1 G05       0.157075
     35 H15         -0.8830    -3.1090     2.5670 hc         1 G05       0.157075
     36 H16         -0.0000    -1.8510    -3.4460 hc         1 G05       0.157075
     37 H17         -0.8830    -3.1100    -2.5670 hc         1 G05       0.157075
     38 H18          0.8830    -3.1100    -2.5670 hc         1 G05       0.157075
     39 H19         -3.4930     2.6890    -1.1200 hx         1 G05       0.198754
     40 H20         -1.7780     2.9670    -0.7650 hx         1 G05       0.198754
     41 H21         -2.2590     1.7800    -2.0190 hx         1 G05       0.198754
     42 H22         -3.5950     2.5460     1.2180 hx         1 G05       0.198754
     43 H23         -3.0810     1.0830     2.0850 hx         1 G05       0.198754
     44 H24         -1.8820     2.3330     1.6390 hx         1 G05       0.198754
     45 H25         -4.6960     0.9640    -0.0990 hx         1 G05       0.198754
     46 H26         -3.8370     0.0020    -1.3220 hx         1 G05       0.198754
     47 H27         -3.8750    -0.5370     0.3840 hx         1 G05       0.198754
     48 H28          3.4940     2.6880    -1.1200 hx         1 G05       0.198754
     49 H29          2.2600     1.7790    -2.0190 hx         1 G05       0.198754
     50 H30          1.7780     2.9670    -0.7660 hx         1 G05       0.198754
     51 H31          4.6960     0.9630    -0.0990 hx         1 G05       0.198754
     52 H32          3.8750    -0.5380     0.3850 hx         1 G05       0.198754
     53 H33          3.8370     0.0010    -1.3210 hx         1 G05       0.198754
     54 H34          3.5950     2.5460     1.2180 hx         1 G05       0.198754
     55 H35          1.8820     2.3330     1.6380 hx         1 G05       0.198754
     56 H36          3.0810     1.0830     2.0850 hx         1 G05       0.198754
@<TRIPOS>BOND
     1     1     7 1   
     2     1     8 1   
     3     1    21 1   
     4     1    22 1   
     5     2     7 1   
     6     2     9 1   
     7     2    23 1   
     8     2    24 1   
     9     3     7 1   
    10     3    10 1   
    11     3    25 1   
    12     3    26 1   
    13     4     8 1   
    14     4     9 1   
    15     4    27 1   
    16     4    28 1   
    17     5     8 1   
    18     5    10 1   
    19     5    29 1   
    20     5    30 1   
    21     6     9 1   
    22     6    10 1   
    23     6    31 1   
    24     6    32 1   
    25     7    11 1   
    26     8    12 1   
    27     9    19 1   
    28    10    20 1   
    29    11    33 1   
    30    11    34 1   
    31    11    35 1   
    32    12    36 1   
    33    12    37 1   
    34    12    38 1   
    35    13    19 1   
    36    13    39 1   
    37    13    40 1   
    38    13    41 1   
    39    14    19 1   
    40    14    42 1   
    41    14    43 1   
    42    14    44 1   
    43    15    19 1   
    44    15    45 1   
    45    15    46 1   
    46    15    47 1   
    47    16    20 1   
    48    16    48 1   
    49    16    49 1   
    50    16    50 1   
    51    17    20 1   
    52    17    51 1   
    53    17    52 1   
    54    17    53 1   
    55    18    20 1   
    56    18    54 1   
    57    18    55 1   
    58    18    56 1   
@<TRIPOS>SUBSTRUCTURE
     1 G05         1 TEMP              0 ****  ****    0 ROOT
