@<TRIPOS>MOLECULE
G06
   27    27     1     0     0
SMALL
resp


@<TRIPOS>ATOM
      1 C1          -2.0970     0.6060     0.1040 c3         1 G06       0.015159
      2 C2          -1.0570     1.4280    -0.6930 c3         1 G06      -0.079753
      3 C3          -2.0720    -0.9180    -0.1260 c3         1 G06      -0.079753
      4 C4           0.2210     1.8320     0.0770 c3         1 G06       0.014199
      5 C5          -0.8460    -1.7290     0.3330 c3         1 G06       0.014199
      6 C6           0.8650     0.7880     1.0070 c3         1 G06      -0.363699
      7 C7           0.4840    -1.4110    -0.4000 c3         1 G06      -0.363699
      8 C8           1.4250    -0.5000     0.3990 c3         1 G06       0.367129
      9 N1           2.6090    -0.1270    -0.5270 nz         1 G06      -0.754272
     10 H1          -2.0230     0.8310     1.1770 hc         1 G06       0.040573
     11 H2          -3.0960     0.9460    -0.1900 hc         1 G06       0.040573
     12 H3          -0.8030     0.8940    -1.6170 hc         1 G06       0.038583
     13 H4          -1.5200     2.3630    -1.0290 hc         1 G06       0.038583
     14 H5          -2.9460    -1.3480     0.3790 hc         1 G06       0.038583
     15 H6          -2.2260    -1.1080    -1.1980 hc         1 G06       0.038583
     16 H7           0.9620     2.2330    -0.6350 hc         1 G06       0.043602
     17 H8          -0.0210     2.6840     0.7230 hc         1 G06       0.043602
     18 H9          -0.7080    -1.6380     1.4190 hc         1 G06       0.043602
     19 H10         -1.0710    -2.7860     0.1590 hc         1 G06       0.043602
     20 H11          1.6680     1.2700     1.5820 hc         1 G06       0.131673
     21 H12          0.1340     0.4700     1.7570 hc         1 G06       0.131673
     22 H13          1.0220    -2.3470    -0.6000 hc         1 G06       0.131673
     23 H14          0.2640    -0.9650    -1.3780 hc         1 G06       0.131673
     24 H15          1.8990    -1.0830     1.1960 hx         1 G06       0.057547
     25 H16          3.3470     0.3740    -0.0170 hn         1 G06       0.412122
     26 H17          2.2890     0.4850    -1.2870 hn         1 G06       0.412122
     27 H18          3.0300    -0.9610    -0.9550 hn         1 G06       0.412122
@<TRIPOS>BOND
     1     1     2 1   
     2     1     3 1   
     3     1    10 1   
     4     1    11 1   
     5     2     4 1   
     6     2    12 1   
     7     2    13 1   
     8     3     5 1   
     9     3    14 1   
    10     3    15 1   
    11     4     6 1   
    12     4    16 1   
    13     4    17 1   
    14     5     7 1   
    15     5    18 1   
    16     5    19 1   
    17     6     8 1   
    18     6    20 1   
    19     6    21 1   
    20     7     8 1   
    21     7    22 1   
    22     7    23 1   
    23     8     9 1   
    24     8    24 1   
    25     9    25 1   
    26     9    26 1   
    27     9    27 1   
@<TRIPOS>SUBSTRUCTURE
     1 G06         1 TEMP              0 ****  ****    0 ROOT
