@<TRIPOS>MOLECULE
G07
   21    21     1     0     0
SMALL
resp


@<TRIPOS>ATOM
      1 C1          -1.8120     0.0000    -0.1560 c3         1 G07      -0.100194
      2 C2          -0.9640     1.2710    -0.3220 c3         1 G07       0.009723
      3 C3          -0.9640    -1.2710    -0.3220 c3         1 G07       0.009723
      4 C4           0.2390     1.2790     0.6400 c3         1 G07      -0.378652
      5 C5           0.2380    -1.2790     0.6400 c3         1 G07      -0.378652
      6 C6           1.0790    -0.0000     0.5590 c3         1 G07       0.330229
      7 N1           1.8480    -0.0000    -0.7850 nz         1 G07      -0.698732
      8 H1          -2.2710     0.0000     0.8420 hc         1 G07       0.083302
      9 H2          -2.6350     0.0000    -0.8770 hc         1 G07       0.083302
     10 H3          -0.6260     1.3580    -1.3680 hc         1 G07       0.036874
     11 H4          -1.5670     2.1660    -0.1410 hc         1 G07       0.036874
     12 H5          -1.5670    -2.1650    -0.1410 hc         1 G07       0.036874
     13 H6          -0.6260    -1.3580    -1.3680 hc         1 G07       0.036874
     14 H7           0.8700     2.1660     0.4910 hc         1 G07       0.157086
     15 H8          -0.1220     1.3400     1.6740 hc         1 G07       0.157086
     16 H9          -0.1220    -1.3400     1.6740 hc         1 G07       0.157086
     17 H10          0.8690    -2.1660     0.4910 hc         1 G07       0.157086
     18 H11          1.8740    -0.0000     1.3110 hx         1 G07       0.054914
     19 H12          1.1920     0.0000    -1.5750 hn         1 G07       0.403066
     20 H13          2.4450    -0.8310    -0.8770 hn         1 G07       0.403066
     21 H14          2.4450     0.8300    -0.8770 hn         1 G07       0.403066
@<TRIPOS>BOND
     1     1     2 1   
     2     1     3 1   
     3     1     8 1   
     4     1     9 1   
     5     2     4 1   
     6     2    10 1   
     7     2    11 1   
     8     3     5 1   
     9     3    12 1   
    10     3    13 1   
    11     4     6 1   
    12     4    14 1   
    13     4    15 1   
    14     5     6 1   
    15     5    16 1   
    16     5    17 1   
    17     6     7 1   
    18     6    18 1   
    19     7    19 1   
    20     7    20 1   
    21     7    21 1   
@<TRIPOS>SUBSTRUCTURE
     1 G07         1 TEMP              0 ****  ****    0 ROOT
