@<TRIPOS>MOLECULE
G08
   36    36     1     0     0
SMALL
resp


@<TRIPOS>ATOM
      1 C1           5.4140    -1.2290     0.0270 ca         1 G08      -0.097910
      2 C2           5.1920    -0.1250    -0.7990 ca         1 G08      -0.161067
      3 C3           4.3330    -1.8790     0.6250 ca         1 G08      -0.161067
      4 C4           3.8930     0.3330    -1.0160 ca         1 G08      -0.149515
      5 C5           3.0340    -1.4210     0.4060 ca         1 G08      -0.149515
      6 C6           2.8000    -0.2990    -0.4050 ca         1 G08       0.131668
      7 C7           1.6680     2.4880     0.2200 c3         1 G08      -0.278792
      8 C8           0.8850     0.7350     1.7270 c3         1 G08      -0.278792
      9 C9           1.3920     0.1690    -0.6650 c3         1 G08      -0.302665
     10 C10         -1.6080     0.4550     0.0730 c3         1 G08       0.137720
     11 C11         -0.6070     1.5820    -0.0920 c3         1 G08       0.021101
     12 C12         -3.0130     0.8630    -0.3710 c3         1 G08      -0.509137
     13 N1           0.8500     1.2350     0.3110 n4         1 G08       0.215619
     14 O1          -3.9600    -0.8570     1.3520 o          1 G08      -0.671174
     15 O2          -5.4360    -0.1550    -0.5590 o          1 G08      -0.671174
     16 O3          -3.4500    -1.6400    -0.9700 o          1 G08      -0.671174
     17 S1          -4.1040    -0.6130    -0.1110 s6         1 G08       1.201491
     18 H1           6.4250    -1.5900     0.1920 ha         1 G08       0.151256
     19 H2           6.0280     0.3710    -1.2840 ha         1 G08       0.161149
     20 H3           4.4970    -2.7510     1.2510 ha         1 G08       0.161149
     21 H4           3.7270     1.1760    -1.6840 ha         1 G08       0.139085
     22 H5           2.1950    -1.9500     0.8520 ha         1 G08       0.139085
     23 H6           1.6020     2.8810    -0.7960 hx         1 G08       0.137420
     24 H7           1.2630     3.2190     0.9220 hx         1 G08       0.137420
     25 H8           2.7060     2.2650     0.4680 hx         1 G08       0.137420
     26 H9           0.3400    -0.2050     1.7920 hx         1 G08       0.137420
     27 H10          1.9230     0.5920     2.0260 hx         1 G08       0.137420
     28 H11          0.4050     1.4780     2.3660 hx         1 G08       0.137420
     29 H12          1.2990     0.6240    -1.6550 hx         1 G08       0.162582
     30 H13          0.6850    -0.6580    -0.6060 hx         1 G08       0.162582
     31 H14         -1.3460    -0.4270    -0.5210 hc         1 G08       0.040999
     32 H15         -1.6950     0.1380     1.1170 hc         1 G08       0.040999
     33 H16         -0.8730     2.4430     0.5300 hx         1 G08       0.046718
     34 H17         -0.5410     1.9180    -1.1310 hx         1 G08       0.046718
     35 H18         -3.0510     1.1300    -1.4320 h1         1 G08       0.158769
     36 H19         -3.4120     1.6890     0.2260 h1         1 G08       0.158769
@<TRIPOS>BOND
     1     1     2 ar  
     2     1     3 ar  
     3     1    18 1   
     4     2     4 ar  
     5     2    19 1   
     6     3     5 ar  
     7     3    20 1   
     8     4     6 ar  
     9     4    21 1   
    10     5     6 ar  
    11     5    22 1   
    12     6     9 1   
    13     7    13 1   
    14     7    23 1   
    15     7    24 1   
    16     7    25 1   
    17     8    13 1   
    18     8    26 1   
    19     8    27 1   
    20     8    28 1   
    21     9    13 1   
    22     9    29 1   
    23     9    30 1   
    24    10    11 1   
    25    10    12 1   
    26    10    31 1   
    27    10    32 1   
    28    11    13 1   
    29    11    33 1   
    30    11    34 1   
    31    12    17 1   
    32    12    35 1   
    33    12    36 1   
    34    14    17 1   
    35    15    17 1   
    36    16    17 1   
@<TRIPOS>SUBSTRUCTURE
     1 G08         1 TEMP              0 ****  ****    0 ROOT
