@<TRIPOS>MOLECULE
G10
   42    42     1     0     0
SMALL
resp


@<TRIPOS>ATOM
      1 C1           0.6970    -1.2060    -0.7780 ca         1 G10      -0.216042
      2 C2          -0.6970    -1.2060    -0.7780 ca         1 G10      -0.216042
      3 C3           0.6970     1.2060    -0.7780 ca         1 G10      -0.216042
      4 C4          -0.6970     1.2060    -0.7780 ca         1 G10      -0.216042
      5 C5           1.4150    -0.0000    -0.7780 ca         1 G10       0.239986
      6 C6          -1.4150    -0.0000    -0.7780 ca         1 G10       0.239986
      7 C7           3.4830     1.2300     1.1820 c3         1 G10      -0.353645
      8 C8           3.4830    -1.2300     1.1820 c3         1 G10      -0.353645
      9 C9           5.2210     0.0000    -0.0440 c3         1 G10      -0.353645
     10 C10         -3.4830    -1.2300     1.1820 c3         1 G10      -0.353645
     11 C11         -3.4840     1.2310     1.1820 c3         1 G10      -0.353645
     12 C12         -5.2210    -0.0000    -0.0440 c3         1 G10      -0.353645
     13 C13          2.9200    -0.0000    -0.9380 c3         1 G10      -0.485986
     14 C14         -2.9200    -0.0000    -0.9380 c3         1 G10      -0.485986
     15 N1           3.7620     0.0000     0.3570 n4         1 G10       0.172524
     16 N2          -3.7620     0.0000     0.3570 n4         1 G10       0.172524
     17 H1           1.2220    -2.1560    -0.8300 ha         1 G10       0.187114
     18 H2          -1.2220    -2.1560    -0.8300 ha         1 G10       0.187114
     19 H3           1.2220     2.1560    -0.8300 ha         1 G10       0.187114
     20 H4          -1.2220     2.1560    -0.8300 ha         1 G10       0.187114
     21 H5           3.7110     2.1160     0.5860 hx         1 G10       0.187962
     22 H6           2.4340     1.2320     1.4770 hx         1 G10       0.187962
     23 H7           4.1200     1.2090     2.0670 hx         1 G10       0.187962
     24 H8           3.7110    -2.1160     0.5870 hx         1 G10       0.187962
     25 H9           4.1200    -1.2080     2.0670 hx         1 G10       0.187962
     26 H10          2.4350    -1.2320     1.4770 hx         1 G10       0.187962
     27 H11          5.4280    -0.8940    -0.6340 hx         1 G10       0.187962
     28 H12          5.4280     0.8940    -0.6340 hx         1 G10       0.187962
     29 H13          5.8330     0.0000     0.8590 hx         1 G10       0.187962
     30 H14         -3.7110    -2.1160     0.5870 hx         1 G10       0.187962
     31 H15         -2.4340    -1.2310     1.4770 hx         1 G10       0.187962
     32 H16         -4.1200    -1.2080     2.0680 hx         1 G10       0.187962
     33 H17         -3.7120     2.1160     0.5860 hx         1 G10       0.187962
     34 H18         -4.1210     1.2090     2.0670 hx         1 G10       0.187962
     35 H19         -2.4350     1.2320     1.4770 hx         1 G10       0.187962
     36 H20         -5.4290     0.8940    -0.6340 hx         1 G10       0.187962
     37 H21         -5.4280    -0.8950    -0.6340 hx         1 G10       0.187962
     38 H22         -5.8330    -0.0000     0.8590 hx         1 G10       0.187962
     39 H23          3.2480    -0.8840    -1.4890 hx         1 G10       0.250303
     40 H24          3.2480     0.8840    -1.4890 hx         1 G10       0.250303
     41 H25         -3.2480     0.8840    -1.4900 hx         1 G10       0.250303
     42 H26         -3.2480    -0.8840    -1.4890 hx         1 G10       0.250303
@<TRIPOS>BOND
     1     1     2 ar  
     2     1     5 ar  
     3     1    17 1   
     4     2     6 ar  
     5     2    18 1   
     6     3     4 ar  
     7     3     5 ar  
     8     3    19 1   
     9     4     6 ar  
    10     4    20 1   
    11     5    13 1   
    12     6    14 1   
    13     7    15 1   
    14     7    21 1   
    15     7    22 1   
    16     7    23 1   
    17     8    15 1   
    18     8    24 1   
    19     8    25 1   
    20     8    26 1   
    21     9    15 1   
    22     9    27 1   
    23     9    28 1   
    24     9    29 1   
    25    10    16 1   
    26    10    30 1   
    27    10    31 1   
    28    10    32 1   
    29    11    16 1   
    30    11    33 1   
    31    11    34 1   
    32    11    35 1   
    33    12    16 1   
    34    12    36 1   
    35    12    37 1   
    36    12    38 1   
    37    13    15 1   
    38    13    39 1   
    39    13    40 1   
    40    14    16 1   
    41    14    41 1   
    42    14    42 1   
@<TRIPOS>SUBSTRUCTURE
     1 G10         1 TEMP              0 ****  ****    0 ROOT
