@<TRIPOS>MOLECULE
G12
   50    52     1     0     0
SMALL
resp


@<TRIPOS>ATOM
      1 C1          -0.2790    -0.2340     1.7470 c3         1 G12      -0.329730
      2 C2           0.0040     1.4920    -0.0290 c3         1 G12      -0.329730
      3 C3          -0.0130    -2.0470     0.0350 c3         1 G12      -0.329730
      4 C4           0.2890    -0.3010    -1.7460 c3         1 G12      -0.329730
      5 C5           0.7730     0.6280     1.0000 c3         1 G12       0.174768
      6 C6          -1.0480    -1.1400     0.7540 c3         1 G12       0.174768
      7 C7          -0.7560     0.6010    -1.0340 c3         1 G12       0.174768
      8 C8           1.0340    -1.1830    -0.7220 c3         1 G12       0.174768
      9 C9           1.7760    -0.3770     0.3760 c3         1 G12      -0.220174
     10 C10         -1.7740    -0.3700    -0.3800 c3         1 G12      -0.220174
     11 C11          3.2170     1.4760    -0.7730 c3         1 G12      -0.366311
     12 C12          3.9990    -0.8420    -0.7380 c3         1 G12      -0.366311
     13 C13          3.9340     0.4560     1.3240 c3         1 G12      -0.366311
     14 C14         -3.2950     0.9980     1.2480 c3         1 G12      -0.366311
     15 C15         -4.1510    -0.9760     0.0990 c3         1 G12      -0.366311
     16 C16         -3.7070     1.0620    -1.1620 c3         1 G12      -0.366311
     17 N1           3.2020     0.1950     0.0220 n4         1 G12       0.062472
     18 N2          -3.2010     0.1990    -0.0280 n4         1 G12       0.062472
     19 H1           0.2040    -0.8730     2.4950 hc         1 G12       0.119749
     20 H2          -0.9400     0.4320     2.3080 hc         1 G12       0.119749
     21 H3          -0.6670     2.1600     0.5210 hc         1 G12       0.119749
     22 H4           0.6630     2.1570    -0.5940 hc         1 G12       0.119749
     23 H5           0.4780    -2.6910     0.7740 hc         1 G12       0.119749
     24 H6          -0.5090    -2.7150    -0.6780 hc         1 G12       0.119749
     25 H7          -0.2000    -0.9500    -2.4820 hc         1 G12       0.119749
     26 H8           0.9700     0.3340    -2.3210 hc         1 G12       0.119749
     27 H9           1.2660     1.2760     1.7310 hc         1 G12       0.071767
     28 H10         -1.7410    -1.7840     1.3060 hc         1 G12       0.071767
     29 H11         -1.2350     1.2220    -1.7940 hc         1 G12       0.071767
     30 H12          1.7120    -1.8650    -1.2410 hc         1 G12       0.071767
     31 H13          2.0550    -1.0920     1.1560 hx         1 G12       0.180597
     32 H14         -2.0530    -1.0960    -1.1490 hx         1 G12       0.180597
     33 H15          4.2570     1.7290    -0.9870 hx         1 G12       0.195937
     34 H16          2.6820     1.3360    -1.7100 hx         1 G12       0.195937
     35 H17          2.7680     2.2750    -0.1860 hx         1 G12       0.195937
     36 H18          5.0370    -0.5100    -0.7820 hx         1 G12       0.195937
     37 H19          3.9430    -1.7970    -0.2130 hx         1 G12       0.195937
     38 H20          3.6070    -0.9390    -1.7500 hx         1 G12       0.195937
     39 H21          4.9180     0.8650     1.0930 hx         1 G12       0.195937
     40 H22          3.3740     1.1750     1.9220 hx         1 G12       0.195937
     41 H23          4.0440    -0.4830     1.8680 hx         1 G12       0.195937
     42 H24         -4.3180     1.3680     1.3410 hx         1 G12       0.195937
     43 H25         -3.0680     0.3560     2.0980 hx         1 G12       0.195937
     44 H26         -2.6100     1.8430     1.2070 hx         1 G12       0.195937
     45 H27         -5.1420    -0.5960     0.3530 hx         1 G12       0.195937
     46 H28         -4.1940    -1.5060    -0.8540 hx         1 G12       0.195937
     47 H29         -3.8060    -1.6440     0.8870 hx         1 G12       0.195937
     48 H30         -4.7660     1.2630    -0.9940 hx         1 G12       0.195937
     49 H31         -3.1600     2.0040    -1.1810 hx         1 G12       0.195937
     50 H32         -3.5820     0.5280    -2.1050 hx         1 G12       0.195937
@<TRIPOS>BOND
     1     1     5 1   
     2     1     6 1   
     3     1    19 1   
     4     1    20 1   
     5     2     5 1   
     6     2     7 1   
     7     2    21 1   
     8     2    22 1   
     9     3     6 1   
    10     3     8 1   
    11     3    23 1   
    12     3    24 1   
    13     4     7 1   
    14     4     8 1   
    15     4    25 1   
    16     4    26 1   
    17     5     9 1   
    18     5    27 1   
    19     6    10 1   
    20     6    28 1   
    21     7    10 1   
    22     7    29 1   
    23     8     9 1   
    24     8    30 1   
    25     9    17 1   
    26     9    31 1   
    27    10    18 1   
    28    10    32 1   
    29    11    17 1   
    30    11    33 1   
    31    11    34 1   
    32    11    35 1   
    33    12    17 1   
    34    12    36 1   
    35    12    37 1   
    36    12    38 1   
    37    13    17 1   
    38    13    39 1   
    39    13    40 1   
    40    13    41 1   
    41    14    18 1   
    42    14    42 1   
    43    14    43 1   
    44    14    44 1   
    45    15    18 1   
    46    15    45 1   
    47    15    46 1   
    48    15    47 1   
    49    16    18 1   
    50    16    48 1   
    51    16    49 1   
    52    16    50 1   
@<TRIPOS>SUBSTRUCTURE
     1 G12         1 TEMP              0 ****  ****    0 ROOT
