@<TRIPOS>MOLECULE
G13
   28    29     1     0     0
SMALL
resp


@<TRIPOS>ATOM
      1 C1           1.4720     1.1310     0.4060 cc         1 G13      -0.244386
      2 C2           1.4700    -1.1280    -0.4130 cc         1 G13      -0.244386
      3 C3          -1.4720     1.1310    -0.4060 cd         1 G13      -0.244386
      4 C4          -1.4700    -1.1280     0.4130 cd         1 G13      -0.244386
      5 C5           2.8570     1.1050     0.3930 cd         1 G13       0.057844
      6 C6           2.8550    -1.1000    -0.4130 cd         1 G13       0.057844
      7 C7          -2.8570     1.1050    -0.3930 cc         1 G13       0.057844
      8 C8          -2.8550    -1.1000     0.4130 cc         1 G13       0.057844
      9 C9           0.7440     0.0010    -0.0010 cc         1 G13       0.202973
     10 C10         -0.7440     0.0010     0.0010 cd         1 G13       0.202973
     11 C11          5.0200    -0.0090     0.0160 c3         1 G13      -0.342673
     12 C12         -5.0200    -0.0090    -0.0160 c3         1 G13      -0.342673
     13 N1           3.5290     0.0030    -0.0130 na         1 G13       0.115256
     14 N2          -3.5290     0.0030     0.0130 na         1 G13       0.115256
     15 H1           0.9790     2.0310     0.7580 ha         1 G13       0.206803
     16 H2           0.9760    -2.0270    -0.7660 ha         1 G13       0.206803
     17 H3          -0.9790     2.0310    -0.7580 ha         1 G13       0.206803
     18 H4          -0.9760    -2.0270     0.7660 ha         1 G13       0.206803
     19 H5           3.4560     1.9520     0.7080 h4         1 G13       0.208604
     20 H6           3.4530    -1.9460    -0.7330 h4         1 G13       0.208604
     21 H7          -3.4560     1.9520    -0.7080 h4         1 G13       0.208604
     22 H8          -3.4530    -1.9460     0.7330 h4         1 G13       0.208604
     23 H9           5.3520    -0.3670     0.9940 h1         1 G13       0.188905
     24 H10          5.3840    -0.6690    -0.7700 h1         1 G13       0.188905
     25 H11          5.3860     1.0030    -0.1590 h1         1 G13       0.188905
     26 H12         -5.3520    -0.3670    -0.9940 h1         1 G13       0.188905
     27 H13         -5.3840    -0.6690     0.7700 h1         1 G13       0.188905
     28 H14         -5.3860     1.0030     0.1590 h1         1 G13       0.188905
@<TRIPOS>BOND
     1     1     5 2   
     2     1     9 1   
     3     1    15 1   
     4     2     6 2   
     5     2     9 1   
     6     2    16 1   
     7     3     7 2   
     8     3    10 1   
     9     3    17 1   
    10     4     8 2   
    11     4    10 1   
    12     4    18 1   
    13     5    13 1   
    14     5    19 1   
    15     6    13 1   
    16     6    20 1   
    17     7    14 1   
    18     7    21 1   
    19     8    14 1   
    20     8    22 1   
    21     9    10 2   
    22    11    13 1   
    23    11    23 1   
    24    11    24 1   
    25    11    25 1   
    26    12    14 1   
    27    12    26 1   
    28    12    27 1   
    29    12    28 1   
@<TRIPOS>SUBSTRUCTURE
     1 G13         1 TEMP              0 ****  ****    0 ROOT
