@<TRIPOS>MOLECULE
WP6
  150   156     1     0     0
SMALL
resp


@<TRIPOS>ATOM
      1 C1          -0.7090    -5.3450    -1.2110 ca         1 WP6       0.197098
      2 C2           0.7090    -5.3440     1.2110 ca         1 WP6       0.197098
      3 C3          -1.4460    -5.1970    -0.0120 ca         1 WP6       0.016611
      4 C4           0.6970    -5.2320    -1.1810 ca         1 WP6      -0.304499
      5 C5           1.4460    -5.1970     0.0110 ca         1 WP6       0.016611
      6 C6          -0.6970    -5.2310     1.1800 ca         1 WP6      -0.304499
      7 H1           1.2440    -5.2070    -2.1200 ha         1 WP6       0.150145
      8 H2          -1.2440    -5.2060     2.1190 ha         1 WP6       0.150145
      9 C7          -2.9940    -5.1860    -0.0000 c3         1 WP6      -0.200314
     10 H3          -3.3270    -5.7380     0.8860 hc         1 WP6       0.128010
     11 H4          -3.3050    -5.7510    -0.8860 hc         1 WP6       0.128010
     12 O1          -1.4150    -5.6140    -2.3720 os         1 WP6      -0.239745
     13 O2           1.4160    -5.6120     2.3720 os         1 WP6      -0.239745
     14 C8          -0.8230    -6.4470    -3.3800 c3         1 WP6      -0.058084
     15 H5           0.0710    -6.9380    -2.9720 h1         1 WP6       0.030394
     16 H6          -0.4840    -5.8190    -4.2160 h1         1 WP6       0.030394
     17 C9           0.8230    -6.4460     3.3800 c3         1 WP6      -0.058084
     18 H7           0.4850    -5.8170     4.2160 h1         1 WP6       0.030394
     19 H8          -0.0700    -6.9370     2.9730 h1         1 WP6       0.030394
     20 C10         -1.7340    -7.5920    -3.9740 c          1 WP6       0.889145
     21 C11          1.7350    -7.5900     3.9740 c          1 WP6       0.889145
     22 O3          -2.7670    -7.9450    -3.3640 o          1 WP6      -0.869656
     23 O4           2.7680    -7.9430     3.3640 o          1 WP6      -0.869656
     24 O5          -1.2400    -8.0870    -5.0360 o          1 WP6      -0.869656
     25 O6           1.2410    -8.0850     5.0350 o          1 WP6      -0.869656
     26 C12         -4.9840    -2.0590    -1.2110 ca         1 WP6       0.197098
     27 C13         -4.2740    -3.2860     1.2110 ca         1 WP6       0.197098
     28 C14         -5.2240    -1.3460    -0.0110 ca         1 WP6       0.016611
     29 C15         -4.1820    -3.2200    -1.1800 ca         1 WP6      -0.304499
     30 C16         -3.7780    -3.8510     0.0120 ca         1 WP6       0.016611
     31 C17         -4.8790    -2.0120     1.1810 ca         1 WP6      -0.304499
     32 H9          -3.8880    -3.6810    -2.1200 ha         1 WP6       0.150145
     33 H10         -5.1300    -1.5260     2.1200 ha         1 WP6       0.150145
     34 C18         -5.9880    -0.0000     0.0000 c3         1 WP6      -0.200314
     35 H11         -6.6330     0.0130     0.8860 hc         1 WP6       0.128010
     36 H12         -6.6330    -0.0130    -0.8850 hc         1 WP6       0.128010
     37 O7          -5.5700    -1.5810    -2.3720 os         1 WP6      -0.239745
     38 O8          -4.1520    -4.0320     2.3720 os         1 WP6      -0.239745
     39 C19         -5.9950    -2.5110    -3.3800 c3         1 WP6      -0.058084
     40 H13         -5.9740    -3.5310    -2.9720 h1         1 WP6       0.030394
     41 H14         -5.2810    -2.4900    -4.2150 h1         1 WP6       0.030394
     42 C20         -5.1700    -3.9350     3.3810 c3         1 WP6      -0.058084
     43 H15         -4.7940    -3.3280     4.2160 h1         1 WP6       0.030394
     44 H16         -6.0420    -3.4070     2.9730 h1         1 WP6       0.030394
     45 C21         -7.4420    -2.2940    -3.9750 c          1 WP6       0.889145
     46 C22         -5.7050    -5.2970     3.9750 c          1 WP6       0.889145
     47 O9          -7.6220    -2.9690    -5.0360 o          1 WP6      -0.869656
     48 O10         -6.3800    -5.1170     5.0370 o          1 WP6      -0.869656
     49 O11         -8.2640    -1.5760    -3.3650 o          1 WP6      -0.869656
     50 O12         -5.4950    -6.3680     3.3650 o          1 WP6      -0.869656
     51 C23         -4.2750     3.2860    -1.2110 ca         1 WP6       0.197098
     52 C24         -4.9820     2.0580     1.2110 ca         1 WP6       0.197098
     53 C25         -3.7780     3.8510    -0.0120 ca         1 WP6       0.016611
     54 C26         -4.8800     2.0120    -1.1800 ca         1 WP6      -0.304499
     55 C27         -5.2240     1.3460     0.0120 ca         1 WP6       0.016611
     56 C28         -4.1810     3.2190     1.1800 ca         1 WP6      -0.304499
     57 H17         -5.1310     1.5260    -2.1190 ha         1 WP6       0.150145
     58 H18         -3.8860     3.6800     2.1190 ha         1 WP6       0.150145
     59 C29         -2.9940     5.1850    -0.0000 c3         1 WP6      -0.200314
     60 H19         -3.3050     5.7510     0.8850 hc         1 WP6       0.128010
     61 H20         -3.3280     5.7380    -0.8860 hc         1 WP6       0.128010
     62 O13         -4.1540     4.0320    -2.3720 os         1 WP6      -0.239745
     63 O14         -5.5680     1.5800     2.3730 os         1 WP6      -0.239745
     64 C30         -5.1720     3.9360    -3.3800 c3         1 WP6      -0.058084
     65 H21         -6.0450     3.4080    -2.9720 h1         1 WP6       0.030394
     66 H22         -4.7980     3.3280    -4.2150 h1         1 WP6       0.030394
     67 C31         -5.9930     2.5100     3.3810 c3         1 WP6      -0.058084
     68 H23         -5.2800     2.4880     4.2160 h1         1 WP6       0.030394
     69 H24         -5.9720     3.5300     2.9730 h1         1 WP6       0.030394
     70 C32         -5.7070     5.2970    -3.9750 c          1 WP6       0.889145
     71 C33         -7.4410     2.2930     3.9740 c          1 WP6       0.889145
     72 O15         -6.3830     5.1170    -5.0360 o          1 WP6      -0.869656
     73 O16         -7.6230     2.9680     5.0350 o          1 WP6      -0.869656
     74 O17         -5.4960     6.3690    -3.3650 o          1 WP6      -0.869656
     75 O18         -8.2630     1.5750     3.3640 o          1 WP6      -0.869656
     76 C34          0.7090     5.3450    -1.2110 ca         1 WP6       0.197098
     77 C35         -0.7090     5.3440     1.2110 ca         1 WP6       0.197098
     78 C36          1.4460     5.1970    -0.0120 ca         1 WP6       0.016611
     79 C37         -0.6970     5.2320    -1.1810 ca         1 WP6      -0.304499
     80 C38         -1.4460     5.1970     0.0110 ca         1 WP6       0.016611
     81 C39          0.6970     5.2310     1.1800 ca         1 WP6      -0.304499
     82 H25         -1.2440     5.2070    -2.1200 ha         1 WP6       0.150145
     83 H26          1.2440     5.2060     2.1190 ha         1 WP6       0.150145
     84 C40          2.9940     5.1860    -0.0000 c3         1 WP6      -0.200314
     85 H27          3.3270     5.7380     0.8860 hc         1 WP6       0.128010
     86 H28          3.3050     5.7510    -0.8860 hc         1 WP6       0.128010
     87 O19          1.4150     5.6140    -2.3720 os         1 WP6      -0.239745
     88 O20         -1.4160     5.6120     2.3720 os         1 WP6      -0.239745
     89 C41          0.8230     6.4470    -3.3800 c3         1 WP6      -0.058084
     90 H29         -0.0710     6.9380    -2.9720 h1         1 WP6       0.030394
     91 H30          0.4840     5.8190    -4.2160 h1         1 WP6       0.030394
     92 C42         -0.8230     6.4460     3.3800 c3         1 WP6      -0.058084
     93 H31         -0.4850     5.8170     4.2160 h1         1 WP6       0.030394
     94 H32          0.0700     6.9370     2.9730 h1         1 WP6       0.030394
     95 C43          1.7340     7.5920    -3.9740 c          1 WP6       0.889145
     96 C44         -1.7350     7.5900     3.9740 c          1 WP6       0.889145
     97 O21          1.2400     8.0870    -5.0360 o          1 WP6      -0.869656
     98 O22         -1.2410     8.0850     5.0350 o          1 WP6      -0.869656
     99 O23          2.7670     7.9450    -3.3640 o          1 WP6      -0.869656
    100 O24         -2.7680     7.9430     3.3640 o          1 WP6      -0.869656
    101 C45          4.9840     2.0590    -1.2110 ca         1 WP6       0.197098
    102 C46          4.2740     3.2860     1.2110 ca         1 WP6       0.197098
    103 C47          5.2240     1.3460    -0.0110 ca         1 WP6       0.016611
    104 C48          4.1820     3.2200    -1.1800 ca         1 WP6      -0.304499
    105 C49          3.7780     3.8510     0.0120 ca         1 WP6       0.016611
    106 C50          4.8790     2.0120     1.1810 ca         1 WP6      -0.304499
    107 H33          3.8880     3.6810    -2.1200 ha         1 WP6       0.150145
    108 H34          5.1300     1.5260     2.1200 ha         1 WP6       0.150145
    109 C51          5.9880     0.0000     0.0000 c3         1 WP6      -0.200314
    110 H35          6.6330    -0.0130     0.8860 hc         1 WP6       0.128010
    111 H36          6.6330     0.0130    -0.8850 hc         1 WP6       0.128010
    112 O25          5.5700     1.5810    -2.3720 os         1 WP6      -0.239745
    113 O26          4.1520     4.0320     2.3720 os         1 WP6      -0.239745
    114 C52          5.9950     2.5110    -3.3800 c3         1 WP6      -0.058084
    115 H37          5.9740     3.5310    -2.9720 h1         1 WP6       0.030394
    116 H38          5.2810     2.4900    -4.2150 h1         1 WP6       0.030394
    117 C53          5.1700     3.9350     3.3810 c3         1 WP6      -0.058084
    118 H39          4.7940     3.3280     4.2160 h1         1 WP6       0.030394
    119 H40          6.0420     3.4070     2.9730 h1         1 WP6       0.030394
    120 C54          7.4420     2.2940    -3.9750 c          1 WP6       0.889145
    121 C55          5.7050     5.2970     3.9750 c          1 WP6       0.889145
    122 O27          7.6220     2.9690    -5.0360 o          1 WP6      -0.869656
    123 O28          6.3800     5.1170     5.0370 o          1 WP6      -0.869656
    124 O29          8.2640     1.5760    -3.3650 o          1 WP6      -0.869656
    125 O30          5.4950     6.3680     3.3650 o          1 WP6      -0.869656
    126 C56          4.2750    -3.2860    -1.2110 ca         1 WP6       0.197098
    127 C57          4.9820    -2.0580     1.2110 ca         1 WP6       0.197098
    128 C58          3.7780    -3.8510    -0.0120 ca         1 WP6       0.016611
    129 C59          4.8800    -2.0120    -1.1800 ca         1 WP6      -0.304499
    130 C60          5.2240    -1.3460     0.0120 ca         1 WP6       0.016611
    131 C61          4.1810    -3.2190     1.1800 ca         1 WP6      -0.304499
    132 H41          5.1310    -1.5260    -2.1190 ha         1 WP6       0.150145
    133 H42          3.8860    -3.6800     2.1190 ha         1 WP6       0.150145
    134 C62          2.9940    -5.1850    -0.0000 c3         1 WP6      -0.200314
    135 H43          3.3050    -5.7510     0.8850 hc         1 WP6       0.128010
    136 H44          3.3280    -5.7380    -0.8860 hc         1 WP6       0.128010
    137 O31          4.1540    -4.0320    -2.3720 os         1 WP6      -0.239745
    138 O32          5.5680    -1.5800     2.3730 os         1 WP6      -0.239745
    139 C63          5.1720    -3.9360    -3.3800 c3         1 WP6      -0.058084
    140 H45          6.0450    -3.4080    -2.9720 h1         1 WP6       0.030394
    141 H46          4.7980    -3.3280    -4.2150 h1         1 WP6       0.030394
    142 C64          5.9930    -2.5100     3.3810 c3         1 WP6      -0.058084
    143 H47          5.2800    -2.4880     4.2160 h1         1 WP6       0.030394
    144 H48          5.9720    -3.5300     2.9730 h1         1 WP6       0.030394
    145 C65          5.7070    -5.2970    -3.9750 c          1 WP6       0.889145
    146 C66          7.4410    -2.2930     3.9740 c          1 WP6       0.889145
    147 O33          6.3830    -5.1170    -5.0360 o          1 WP6      -0.869656
    148 O34          7.6230    -2.9680     5.0350 o          1 WP6      -0.869656
    149 O35          5.4960    -6.3690    -3.3650 o          1 WP6      -0.869656
    150 O36          8.2630    -1.5750     3.3640 o          1 WP6      -0.869656
@<TRIPOS>BOND
     1     1     3 ar  
     2     1     4 ar  
     3     1    12 1   
     4     2     5 ar  
     5     2     6 ar  
     6     2    13 1   
     7     3     6 ar  
     8     3     9 1   
     9     4     5 ar  
    10     4     7 1   
    11     5   134 1   
    12     6     8 1   
    13     9    10 1   
    14     9    11 1   
    15     9    30 1   
    16    12    14 1   
    17    13    17 1   
    18    14    15 1   
    19    14    16 1   
    20    14    20 1   
    21    17    18 1   
    22    17    19 1   
    23    17    21 1   
    24    20    22 1   
    25    20    24 1   
    26    21    23 1   
    27    21    25 1   
    28    26    28 ar  
    29    26    29 ar  
    30    26    37 1   
    31    27    30 ar  
    32    27    31 ar  
    33    27    38 1   
    34    28    31 ar  
    35    28    34 1   
    36    29    30 ar  
    37    29    32 1   
    38    31    33 1   
    39    34    35 1   
    40    34    36 1   
    41    34    55 1   
    42    37    39 1   
    43    38    42 1   
    44    39    40 1   
    45    39    41 1   
    46    39    45 1   
    47    42    43 1   
    48    42    44 1   
    49    42    46 1   
    50    45    47 1   
    51    45    49 1   
    52    46    48 1   
    53    46    50 1   
    54    51    53 ar  
    55    51    54 ar  
    56    51    62 1   
    57    52    55 ar  
    58    52    56 ar  
    59    52    63 1   
    60    53    56 ar  
    61    53    59 1   
    62    54    55 ar  
    63    54    57 1   
    64    56    58 1   
    65    59    60 1   
    66    59    61 1   
    67    59    80 1   
    68    62    64 1   
    69    63    67 1   
    70    64    65 1   
    71    64    66 1   
    72    64    70 1   
    73    67    68 1   
    74    67    69 1   
    75    67    71 1   
    76    70    72 1   
    77    70    74 1   
    78    71    73 1   
    79    71    75 1   
    80    76    78 ar  
    81    76    79 ar  
    82    76    87 1   
    83    77    80 ar  
    84    77    81 ar  
    85    77    88 1   
    86    78    81 ar  
    87    78    84 1   
    88    79    80 ar  
    89    79    82 1   
    90    81    83 1   
    91    84    85 1   
    92    84    86 1   
    93    84   105 1   
    94    87    89 1   
    95    88    92 1   
    96    89    90 1   
    97    89    91 1   
    98    89    95 1   
    99    92    93 1   
   100    92    94 1   
   101    92    96 1   
   102    95    97 1   
   103    95    99 1   
   104    96    98 1   
   105    96   100 1   
   106   101   103 ar  
   107   101   104 ar  
   108   101   112 1   
   109   102   105 ar  
   110   102   106 ar  
   111   102   113 1   
   112   103   106 ar  
   113   103   109 1   
   114   104   105 ar  
   115   104   107 1   
   116   106   108 1   
   117   109   110 1   
   118   109   111 1   
   119   109   130 1   
   120   112   114 1   
   121   113   117 1   
   122   114   115 1   
   123   114   116 1   
   124   114   120 1   
   125   117   118 1   
   126   117   119 1   
   127   117   121 1   
   128   120   122 1   
   129   120   124 1   
   130   121   123 1   
   131   121   125 1   
   132   126   128 ar  
   133   126   129 ar  
   134   126   137 1   
   135   127   130 ar  
   136   127   131 ar  
   137   127   138 1   
   138   128   131 ar  
   139   128   134 1   
   140   129   130 ar  
   141   129   132 1   
   142   131   133 1   
   143   134   135 1   
   144   134   136 1   
   145   137   139 1   
   146   138   142 1   
   147   139   140 1   
   148   139   141 1   
   149   139   145 1   
   150   142   143 1   
   151   142   144 1   
   152   142   146 1   
   153   145   147 1   
   154   145   149 1   
   155   146   148 1   
   156   146   150 1   
@<TRIPOS>SUBSTRUCTURE
     1 WP6         1 TEMP              0 ****  ****    0 ROOT
