@<TRIPOS>MOLECULE
G01
   39    39     1     0     0
SMALL
bcc


@<TRIPOS>ATOM
      1 C1          -0.4630    -0.8610     0.4990 c3         1 G01      -0.079400
      2 C2          -1.7920    -1.1670    -0.2130 c3         1 G01      -0.086400
      3 C3           0.5310    -2.0290     0.4750 c3         1 G01      -0.086400
      4 C4          -2.6110    -2.3250     0.3790 c3         1 G01      -0.085400
      5 C5           1.8330    -1.7670     1.2440 c3         1 G01      -0.085400
      6 C6          -3.1790    -2.0340     1.7750 c3         1 G01      -0.084400
      7 C7           1.7230    -1.5790     2.7650 c3         1 G01      -0.084400
      8 C8          -3.3150    -3.2740     2.6750 c3         1 G01      -0.099400
      9 C9           1.6830    -2.8610     3.6160 c3         1 G01      -0.099400
     10 C10         -2.0060    -4.0290     2.9760 c3         1 G01      -0.108900
     11 C11          0.4970    -3.8130     3.4110 c3         1 G01      -0.108900
     12 C12         -0.8810    -3.1550     3.5460 c3         1 G01       0.105500
     13 N1          -1.1590    -2.8740     4.9820 nz         1 G01      -0.837600
     14 H1          -0.0000    -0.0000    -0.0000 hc         1 G01       0.037200
     15 H2          -0.6660    -0.5380     1.5230 hc         1 G01       0.037200
     16 H3          -2.4080    -0.2590    -0.2150 hc         1 G01       0.051700
     17 H4          -1.5780    -1.3990    -1.2640 hc         1 G01       0.051700
     18 H5           0.0660    -2.9410     0.8440 hc         1 G01       0.051700
     19 H6           0.7930    -2.2310    -0.5720 hc         1 G01       0.051700
     20 H7          -3.4560    -2.5240    -0.2930 hc         1 G01       0.054950
     21 H8          -2.0130    -3.2370     0.3610 hc         1 G01       0.054950
     22 H9           2.5350    -2.5840     1.0370 hc         1 G01       0.054950
     23 H10          2.2900    -0.8610     0.8250 hc         1 G01       0.054950
     24 H11         -2.6010    -1.2670     2.2960 hc         1 G01       0.041700
     25 H12         -4.1780    -1.5950     1.6500 hc         1 G01       0.041700
     26 H13          2.6250    -1.0370     3.0800 hc         1 G01       0.041700
     27 H14          0.8930    -0.9160     3.0250 hc         1 G01       0.041700
     28 H15         -3.7740    -2.9650     3.6210 hc         1 G01       0.057950
     29 H16         -4.0180    -3.9750     2.2080 hc         1 G01       0.057950
     30 H17          2.6060    -3.4260     3.4370 hc         1 G01       0.057950
     31 H18          1.7160    -2.5650     4.6710 hc         1 G01       0.057950
     32 H19         -2.2240    -4.8560     3.6640 hc         1 G01       0.083950
     33 H20         -1.6640    -4.5100     2.0530 hc         1 G01       0.083950
     34 H21          0.5990    -4.2760     2.4230 hc         1 G01       0.083950
     35 H22          0.5830    -4.6440     4.1230 hc         1 G01       0.083950
     36 H23         -0.8740    -2.1850     3.0630 hx         1 G01       0.137700
     37 H24         -1.6120    -3.6760     5.4270 hn         1 G01       0.456467
     38 H25         -1.7760    -2.0630     5.0780 hn         1 G01       0.456467
     39 H26         -0.2900    -2.6770     5.4860 hn         1 G01       0.456467
@<TRIPOS>BOND
     1     1     2 1   
     2     1     3 1   
     3     2     4 1   
     4     3     5 1   
     5     4     6 1   
     6     5     7 1   
     7     6     8 1   
     8     7     9 1   
     9     8    10 1   
    10     9    11 1   
    11    10    12 1   
    12    11    12 1   
    13    12    13 1   
    14     1    14 1   
    15     1    15 1   
    16     2    16 1   
    17     2    17 1   
    18     3    18 1   
    19     3    19 1   
    20     4    20 1   
    21     4    21 1   
    22     5    22 1   
    23     5    23 1   
    24     6    24 1   
    25     6    25 1   
    26     7    26 1   
    27     7    27 1   
    28     8    28 1   
    29     8    29 1   
    30     9    30 1   
    31     9    31 1   
    32    10    32 1   
    33    10    33 1   
    34    11    34 1   
    35    11    35 1   
    36    12    36 1   
    37    13    37 1   
    38    13    38 1   
    39    13    39 1   
@<TRIPOS>SUBSTRUCTURE
     1 G01         1 TEMP              0 ****  ****    0 ROOT
