@<TRIPOS>MOLECULE
G02
   46    47     1     0     0
SMALL
bcc


@<TRIPOS>ATOM
      1 C1           2.0340    -2.5220     1.8350 c3         1 G02      -0.104400
      2 C2           0.5910    -0.4920     2.2080 c3         1 G02      -0.104400
      3 C3          -0.0090    -3.6110    -0.0140 c3         1 G02      -0.104400
      4 C4          -1.4000    -1.5400     0.3310 c3         1 G02      -0.104400
      5 C5           2.6810    -2.3130     3.1990 c3         1 G02       0.115800
      6 C6           1.2370    -0.2820     3.5720 c3         1 G02       0.115800
      7 C7          -0.6560    -3.8180    -1.3790 c3         1 G02       0.115800
      8 C8          -2.0480    -1.7470    -1.0330 c3         1 G02       0.115800
      9 C9           0.6100    -1.9630     1.7850 c3         1 G02      -0.066700
     10 C10          0.0090    -2.1350     0.3920 c3         1 G02      -0.066700
     11 C11          3.6160    -0.0060     2.7660 c3         1 G02       0.088600
     12 C12          3.1570    -0.7550     5.0710 c3         1 G02       0.088600
     13 C13         -3.0440    -4.0240    -0.5780 c3         1 G02       0.088600
     14 C14         -2.5590    -3.3130    -2.8890 c3         1 G02       0.088600
     15 N1           2.6620    -0.8410     3.6210 n4         1 G02      -0.605800
     16 N2          -2.0670    -3.2240    -1.4380 n4         1 G02      -0.605800
     17 H1           2.6510    -2.0720     1.0490 hc         1 G02       0.083700
     18 H2           2.0090    -3.5980     1.6210 hc         1 G02       0.083700
     19 H3          -0.4480    -0.1420     2.2560 hc         1 G02       0.083700
     20 H4           1.0850     0.1310     1.4530 hc         1 G02       0.083700
     21 H5          -0.5220    -4.2120     0.7450 hc         1 G02       0.083700
     22 H6           1.0200    -3.9880    -0.0550 hc         1 G02       0.083700
     23 H7          -1.3480    -0.4620     0.5330 hc         1 G02       0.083700
     24 H8          -2.0310    -1.9640     1.1200 hc         1 G02       0.083700
     25 H9           2.1340    -2.8760     3.9660 hx         1 G02       0.107200
     26 H10          3.7240    -2.6470     3.1970 hx         1 G02       0.107200
     27 H11          1.2870     0.7820     3.8260 hx         1 G02       0.107200
     28 H12          0.6600    -0.8010     4.3470 hx         1 G02       0.107200
     29 H13         -0.0640    -3.3230    -2.1570 hx         1 G02       0.107200
     30 H14         -0.7330    -4.8840    -1.6210 hx         1 G02       0.107200
     31 H15         -3.0830    -1.3870    -1.0380 hx         1 G02       0.107200
     32 H16         -1.4860    -1.2070    -1.8050 hx         1 G02       0.107200
     33 H17         -0.0100    -2.5330     2.4910 hc         1 G02       0.072700
     34 H18          0.6450    -1.5890    -0.3180 hc         1 G02       0.072700
     35 H19          3.5580     1.0270     3.1140 hx         1 G02       0.105867
     36 H20          4.6220    -0.4090     2.8980 hx         1 G02       0.105867
     37 H21          3.2930    -0.0890     1.7270 hx         1 G02       0.105867
     38 H22          3.1430     0.2950     5.3670 hx         1 G02       0.105867
     39 H23          2.4810    -1.3470     5.6900 hx         1 G02       0.105867
     40 H24          4.1720    -1.1570     5.1020 hx         1 G02       0.105867
     41 H25         -4.0260    -3.5530    -0.6620 hx         1 G02       0.105867
     42 H26         -3.0650    -5.0470    -0.9590 hx         1 G02       0.105867
     43 H27         -2.6830    -3.9960     0.4520 hx         1 G02       0.105867
     44 H28         -3.5640    -2.8890    -2.9270 hx         1 G02       0.105867
     45 H29         -1.8680    -2.7430    -3.5120 hx         1 G02       0.105867
     46 H30         -2.5670    -4.3670    -3.1750 hx         1 G02       0.105867
@<TRIPOS>BOND
     1     1     5 1   
     2     1     9 1   
     3     2     6 1   
     4     2     9 1   
     5     3     7 1   
     6     3    10 1   
     7     4     8 1   
     8     4    10 1   
     9     5    15 1   
    10     6    15 1   
    11     7    16 1   
    12     8    16 1   
    13     9    10 1   
    14    11    15 1   
    15    12    15 1   
    16    13    16 1   
    17    14    16 1   
    18     1    17 1   
    19     1    18 1   
    20     2    19 1   
    21     2    20 1   
    22     3    21 1   
    23     3    22 1   
    24     4    23 1   
    25     4    24 1   
    26     5    25 1   
    27     5    26 1   
    28     6    27 1   
    29     6    28 1   
    30     7    29 1   
    31     7    30 1   
    32     8    31 1   
    33     8    32 1   
    34     9    33 1   
    35    10    34 1   
    36    11    35 1   
    37    11    36 1   
    38    11    37 1   
    39    12    38 1   
    40    12    39 1   
    41    12    40 1   
    42    13    41 1   
    43    13    42 1   
    44    13    43 1   
    45    14    44 1   
    46    14    45 1   
    47    14    46 1   
@<TRIPOS>SUBSTRUCTURE
     1 G02         1 TEMP              0 ****  ****    0 ROOT
