@<TRIPOS>MOLECULE
G03
   22    23     1     0     0
SMALL
bcc


@<TRIPOS>ATOM
      1 C1           0.9380     0.3590     0.4360 c3         1 G03      -0.089400
      2 C2           1.1760     1.8500     0.1490 c3         1 G03      -0.080400
      3 C3           1.9800     1.3560     2.3270 c3         1 G03      -0.095400
      4 C4          -0.3630     0.9430     2.5010 c3         1 G03      -0.100400
      5 C5           0.9350     0.2980     1.9740 c3         1 G03      -0.069700
      6 C6           1.2540     2.4640     1.5590 c3         1 G03      -0.097700
      7 C7          -0.1590     2.4300     2.1690 c3         1 G03       0.100500
      8 N1          -0.2070     3.2350     3.4140 nz         1 G03      -0.836600
      9 H1          -0.0000     0.0000     0.0000 hc         1 G03       0.072700
     10 H2           1.7580    -0.2390     0.0230 hc         1 G03       0.072700
     11 H3           2.1220     1.9840    -0.3870 hc         1 G03       0.071700
     12 H4           0.3750     2.2850    -0.4570 hc         1 G03       0.071700
     13 H5           2.0620     1.5410     3.4020 hc         1 G03       0.069700
     14 H6           2.9730     1.1320     1.9230 hc         1 G03       0.069700
     15 H7          -1.2540     0.5370     2.0090 hc         1 G03       0.078200
     16 H8          -0.4650     0.7680     3.5780 hc         1 G03       0.078200
     17 H9           1.1200    -0.7010     2.3730 hc         1 G03       0.107700
     18 H10          1.7340     3.4450     1.5740 hc         1 G03       0.088700
     19 H11         -0.9320     2.8290     1.5050 hx         1 G03       0.114700
     20 H12         -0.2120     2.6300     4.2420 hn         1 G03       0.457800
     21 H13         -1.0520     3.8170     3.4420 hn         1 G03       0.457800
     22 H14          0.6070     3.8560     3.4810 hn         1 G03       0.457800
@<TRIPOS>BOND
     1     1     2 1   
     2     1     5 1   
     3     2     6 1   
     4     3     5 1   
     5     3     6 1   
     6     4     5 1   
     7     4     7 1   
     8     6     7 1   
     9     7     8 1   
    10     1     9 1   
    11     1    10 1   
    12     2    11 1   
    13     2    12 1   
    14     3    13 1   
    15     3    14 1   
    16     4    15 1   
    17     4    16 1   
    18     5    17 1   
    19     6    18 1   
    20     7    19 1   
    21     8    20 1   
    22     8    21 1   
    23     8    22 1   
@<TRIPOS>SUBSTRUCTURE
     1 G03         1 TEMP              0 ****  ****    0 ROOT
