@<TRIPOS>MOLECULE
G04
   20    19     1     0     0
SMALL
bcc


@<TRIPOS>ATOM
      1 C1           0.3690     0.3560     1.8690 c3         1 G04      -0.340767
      2 C2           1.2960    -1.3520    -0.4970 c3         1 G04      -0.340767
      3 C3           1.3480     1.6970    -0.6960 c3         1 G04      -0.340767
      4 C4          -1.3260     0.2320    -0.6860 c3         1 G04      -0.133200
      5 N1          -2.1180    -0.8940    -0.1290 nz         1 G04      -0.795600
      6 Si1          0.4090     0.2250    -0.0020 Si         1 G04       0.700000
      7 H1          -0.1430     1.2680     2.1920 hc         1 G04       0.073922
      8 H2          -0.1550    -0.4950     2.3150 hc         1 G04       0.073922
      9 H3           1.3810     0.3780     2.2860 hc         1 G04       0.073922
     10 H4           1.3360    -1.4580    -1.5860 hc         1 G04       0.073922
     11 H5           2.3250    -1.3610    -0.1240 hc         1 G04       0.073922
     12 H6           0.7890    -2.2340    -0.0960 hc         1 G04       0.073922
     13 H7           1.3940     1.6580    -1.7890 hc         1 G04       0.073922
     14 H8           0.8680     2.6400    -0.4170 hc         1 G04       0.073922
     15 H9           2.3760     1.7240    -0.3210 hc         1 G04       0.073922
     16 H10         -1.8630     1.1480    -0.4250 hx         1 G04       0.112200
     17 H11         -1.3360     0.1110    -1.7730 hx         1 G04       0.112200
     18 H12         -1.7070    -1.8080    -0.3620 hn         1 G04       0.453467
     19 H13         -2.2000    -0.8390     0.8960 hn         1 G04       0.453467
     20 H14         -3.0750    -0.8890    -0.5070 hn         1 G04       0.453467
@<TRIPOS>BOND
     1     1     6 1   
     2     2     6 1   
     3     3     6 1   
     4     4     5 1   
     5     4     6 1   
     6     1     7 1   
     7     1     8 1   
     8     1     9 1   
     9     2    10 1   
    10     2    11 1   
    11     2    12 1   
    12     3    13 1   
    13     3    14 1   
    14     3    15 1   
    15     4    16 1   
    16     4    17 1   
    17     5    18 1   
    18     5    19 1   
    19     5    20 1   
@<TRIPOS>SUBSTRUCTURE
     1 G04         1 TEMP              0 ****  ****    0 ROOT
