@<TRIPOS>MOLECULE
G05
   56    58     1     0     0
SMALL
bcc


@<TRIPOS>ATOM
      1 C1          -1.5780     0.6890     0.4080 c3         1 G05      -0.086400
      2 C2          -0.5310    -1.5910     0.5970 c3         1 G05      -0.097400
      3 C3          -0.5910    -0.4140    -1.6270 c3         1 G05      -0.097400
      4 C4           0.6070     0.4070     1.6230 c3         1 G05      -0.097400
      5 C5           0.5460     1.5840    -0.6010 c3         1 G05      -0.097400
      6 C6           1.5970    -0.6970    -0.4120 c3         1 G05      -0.105400
      7 C7          -1.3730    -0.6650    -0.3150 c3         1 G05      -0.036500
      8 C8          -0.2200     1.3610     0.7260 c3         1 G05      -0.036500
      9 C9           0.8260    -0.9310     0.8970 c3         1 G05       0.172200
     10 C10          0.7660     0.2360    -1.3080 c3         1 G05       0.172200
     11 C11         -2.7270    -1.3120    -0.6210 c3         1 G05      -0.100100
     12 C12         -0.4440     2.6970     1.4400 c3         1 G05      -0.100100
     13 C13          2.9840    -1.2110     2.0970 c3         1 G05       0.084433
     14 C14          1.8600    -3.1830     1.0850 c3         1 G05       0.084433
     15 C15          0.8850    -2.0920     3.0940 c3         1 G05       0.084433
     16 C16          2.8640     1.1190    -2.3050 c3         1 G05       0.084433
     17 C17          0.7050     1.3990    -3.5040 c3         1 G05       0.084433
     18 C18          1.7410    -0.8520    -3.3190 c3         1 G05       0.084433
     19 N1           1.6200    -1.8330     1.7720 n4         1 G05      -0.605800
     20 N2           1.5010     0.4700    -2.5790 n4         1 G05      -0.605800
     21 H1          -2.1860     1.3570    -0.2180 hc         1 G05       0.083700
     22 H2          -2.1430     0.5340     1.3370 hc         1 G05       0.083700
     23 H3          -1.0740    -1.7880     1.5310 hc         1 G05       0.078200
     24 H4          -0.3810    -2.5620     0.1050 hc         1 G05       0.078200
     25 H5          -0.4420    -1.3630    -2.1590 hc         1 G05       0.078200
     26 H6          -1.1770     0.2350    -2.2920 hc         1 G05       0.078200
     27 H7           1.5720     0.8700     1.8680 hc         1 G05       0.078200
     28 H8           0.0820     0.2430     2.5740 hc         1 G05       0.078200
     29 H9          -0.0220     2.2650    -1.2480 hc         1 G05       0.078200
     30 H10          1.5100     2.0690    -0.3970 hc         1 G05       0.078200
     31 H11          2.5780    -0.2490    -0.2020 hc         1 G05       0.070200
     32 H12          1.7780    -1.6530    -0.9230 hc         1 G05       0.070200
     33 H13         -2.5710    -2.2620    -1.1270 hc         1 G05       0.065033
     34 H14         -3.3100    -0.6540    -1.2600 hc         1 G05       0.065033
     35 H15         -3.2670    -1.4840     0.3070 hc         1 G05       0.065033
     36 H16          0.5160     3.1590     1.6580 hc         1 G05       0.065033
     37 H17         -0.9820     2.5290     2.3690 hc         1 G05       0.065033
     38 H18         -1.0250     3.3580     0.8010 hc         1 G05       0.065033
     39 H19          3.5250    -1.9090     2.7390 hx         1 G05       0.105256
     40 H20          3.5130    -1.0540     1.1550 hx         1 G05       0.105256
     41 H21          2.8060    -0.2640     2.6100 hx         1 G05       0.105256
     42 H22          2.4450    -3.8050     1.7660 hx         1 G05       0.105256
     43 H23          0.8860    -3.6320     0.8810 hx         1 G05       0.105256
     44 H24          2.4070    -2.9940     0.1600 hx         1 G05       0.105256
     45 H25          1.5070    -2.7560     3.6970 hx         1 G05       0.105256
     46 H26          0.7410    -1.1300     3.5910 hx         1 G05       0.105256
     47 H27         -0.0730    -2.5590     2.8580 hx         1 G05       0.105256
     48 H28          3.3610     1.2690    -3.2650 hx         1 G05       0.105256
     49 H29          2.6860     2.0720    -1.8030 hx         1 G05       0.105256
     50 H30          3.4360     0.4410    -1.6690 hx         1 G05       0.105256
     51 H31          1.2860     1.5380    -4.4180 hx         1 G05       0.105256
     52 H32         -0.2520     0.9200    -3.7160 hx         1 G05       0.105256
     53 H33          0.5620     2.3480    -2.9820 hx         1 G05       0.105256
     54 H34          2.2810    -0.6260    -4.2390 hx         1 G05       0.105256
     55 H35          2.3300    -1.4990    -2.6660 hx         1 G05       0.105256
     56 H36          0.7670    -1.2960    -3.5340 hx         1 G05       0.105256
@<TRIPOS>BOND
     1     1     7 1   
     2     1     8 1   
     3     2     7 1   
     4     2     9 1   
     5     3     7 1   
     6     3    10 1   
     7     4     8 1   
     8     4     9 1   
     9     5     8 1   
    10     5    10 1   
    11     6     9 1   
    12     6    10 1   
    13     7    11 1   
    14     8    12 1   
    15     9    19 1   
    16    10    20 1   
    17    13    19 1   
    18    14    19 1   
    19    15    19 1   
    20    16    20 1   
    21    17    20 1   
    22    18    20 1   
    23     1    21 1   
    24     1    22 1   
    25     2    23 1   
    26     2    24 1   
    27     3    25 1   
    28     3    26 1   
    29     4    27 1   
    30     4    28 1   
    31     5    29 1   
    32     5    30 1   
    33     6    31 1   
    34     6    32 1   
    35    11    33 1   
    36    11    34 1   
    37    11    35 1   
    38    12    36 1   
    39    12    37 1   
    40    12    38 1   
    41    13    39 1   
    42    13    40 1   
    43    13    41 1   
    44    14    42 1   
    45    14    43 1   
    46    14    44 1   
    47    15    45 1   
    48    15    46 1   
    49    15    47 1   
    50    16    48 1   
    51    16    49 1   
    52    16    50 1   
    53    17    51 1   
    54    17    52 1   
    55    17    53 1   
    56    18    54 1   
    57    18    55 1   
    58    18    56 1   
@<TRIPOS>SUBSTRUCTURE
     1 G05         1 TEMP              0 ****  ****    0 ROOT
