@<TRIPOS>MOLECULE
G06
   27    27     1     0     0
SMALL
bcc


@<TRIPOS>ATOM
      1 C1          -0.2960     0.8860    -0.5710 c3         1 G06      -0.084400
      2 C2          -0.0950     0.6830    -2.0740 c3         1 G06      -0.084400
      3 C3          -1.7010     1.3420    -0.1720 c3         1 G06      -0.084400
      4 C4          -0.0910    -0.7730    -2.5350 c3         1 G06      -0.080900
      5 C5          -2.8300     0.3230    -0.3420 c3         1 G06      -0.080900
      6 C6          -1.1850    -1.6890    -1.9880 c3         1 G06      -0.106400
      7 C7          -3.1800     0.0030    -1.7970 c3         1 G06      -0.106400
      8 C8          -2.6390    -1.3350    -2.3050 c3         1 G06       0.136500
      9 N1          -2.8450    -1.3830    -3.7830 nz         1 G06      -0.847600
     10 H1           0.0010     0.0010     0.0000 hc         1 G06       0.058200
     11 H2           0.3900     1.6840    -0.2550 hc         1 G06       0.058200
     12 H3          -0.8120     1.2710    -2.6540 hc         1 G06       0.055200
     13 H4           0.8870     1.0980    -2.3410 hc         1 G06       0.055200
     14 H5          -1.6670     1.6190     0.8900 hc         1 G06       0.055200
     15 H6          -1.9550     2.2630    -0.7130 hc         1 G06       0.055200
     16 H7          -0.1000    -0.7940    -3.6310 hc         1 G06       0.056950
     17 H8           0.8730    -1.2120    -2.2430 hc         1 G06       0.056950
     18 H9          -2.6220    -0.5860     0.2330 hc         1 G06       0.056950
     19 H10         -3.7230     0.7660     0.1200 hc         1 G06       0.056950
     20 H11         -0.9910    -2.6970    -2.3810 hc         1 G06       0.074450
     21 H12         -1.0650    -1.7970    -0.9040 hc         1 G06       0.074450
     22 H13         -4.2760    -0.0470    -1.8700 hc         1 G06       0.074450
     23 H14         -2.8950     0.8320    -2.4530 hc         1 G06       0.074450
     24 H15         -3.2720    -2.1380    -1.9060 hx         1 G06       0.102700
     25 H16         -2.0770    -1.8820    -4.2360 hn         1 G06       0.457467
     26 H17         -2.8880    -0.4370    -4.1680 hn         1 G06       0.457467
     27 H18         -3.7200    -1.8630    -4.0060 hn         1 G06       0.457467
@<TRIPOS>BOND
     1     1     2 1   
     2     1     3 1   
     3     2     4 1   
     4     3     5 1   
     5     4     6 1   
     6     5     7 1   
     7     6     8 1   
     8     7     8 1   
     9     8     9 1   
    10     1    10 1   
    11     1    11 1   
    12     2    12 1   
    13     2    13 1   
    14     3    14 1   
    15     3    15 1   
    16     4    16 1   
    17     4    17 1   
    18     5    18 1   
    19     5    19 1   
    20     6    20 1   
    21     6    21 1   
    22     7    22 1   
    23     7    23 1   
    24     8    24 1   
    25     9    25 1   
    26     9    26 1   
    27     9    27 1   
@<TRIPOS>SUBSTRUCTURE
     1 G06         1 TEMP              0 ****  ****    0 ROOT
