@<TRIPOS>MOLECULE
G07
   21    21     1     0     0
SMALL
bcc


@<TRIPOS>ATOM
      1 C1          -0.5750     0.8750    -0.3270 c3         1 G07      -0.093400
      2 C2          -1.9270     0.4190    -0.8670 c3         1 G07      -0.093400
      3 C3          -0.7270     1.8450     0.8420 c3         1 G07      -0.093400
      4 C4          -2.8060    -0.1720     0.2350 c3         1 G07      -0.109400
      5 C5          -1.6000     1.2600     1.9510 c3         1 G07      -0.109400
      6 C6          -2.9510     0.7500     1.4460 c3         1 G07       0.128500
      7 N1          -3.8090     1.9140     1.0790 nz         1 G07      -0.843600
      8 H1          -0.0000     0.0000     0.0000 hc         1 G07       0.074200
      9 H2           0.0010     1.3520    -1.1280 hc         1 G07       0.074200
     10 H3          -2.4380     1.2650    -1.3410 hc         1 G07       0.059700
     11 H4          -1.7720    -0.3320    -1.6510 hc         1 G07       0.059700
     12 H5           0.2630     2.0870     1.2460 hc         1 G07       0.059700
     13 H6          -1.1570     2.7880     0.4830 hc         1 G07       0.059700
     14 H7          -3.7910    -0.4280    -0.1730 hc         1 G07       0.086200
     15 H8          -2.3580    -1.1170     0.5700 hc         1 G07       0.086200
     16 H9          -1.0630     0.4210     2.4130 hc         1 G07       0.086200
     17 H10         -1.7420     2.0050     2.7430 hc         1 G07       0.086200
     18 H11         -3.4860     0.2350     2.2520 hx         1 G07       0.106700
     19 H12         -3.2420     2.7580     0.9730 hn         1 G07       0.458800
     20 H13         -4.5100     2.0840     1.8040 hn         1 G07       0.458800
     21 H14         -4.2940     1.7370     0.1960 hn         1 G07       0.458800
@<TRIPOS>BOND
     1     1     2 1   
     2     1     3 1   
     3     2     4 1   
     4     3     5 1   
     5     4     6 1   
     6     5     6 1   
     7     6     7 1   
     8     1     8 1   
     9     1     9 1   
    10     2    10 1   
    11     2    11 1   
    12     3    12 1   
    13     3    13 1   
    14     4    14 1   
    15     4    15 1   
    16     5    16 1   
    17     5    17 1   
    18     6    18 1   
    19     7    19 1   
    20     7    20 1   
    21     7    21 1   
@<TRIPOS>SUBSTRUCTURE
     1 G07         1 TEMP              0 ****  ****    0 ROOT
