@<TRIPOS>MOLECULE
G08
   36    36     1     0     0
SMALL
bcc


@<TRIPOS>ATOM
      1 C1           2.2620    -2.2580    -2.1880 ca         1 G08      -0.101000
      2 C2           0.9990    -2.6840    -1.7780 ca         1 G08      -0.126000
      3 C3           3.1190    -1.6390    -1.2770 ca         1 G08      -0.126000
      4 C4           0.5920    -2.4910    -0.4580 ca         1 G08      -0.106500
      5 C5           2.7120    -1.4450     0.0430 ca         1 G08      -0.106500
      6 C6           1.4480    -1.8710     0.4530 ca         1 G08      -0.147300
      7 C7          -0.6100    -0.0450     0.9070 c3         1 G08       0.072600
      8 C8           1.3380     0.7780     2.2120 c3         1 G08       0.072600
      9 C9           1.0110    -1.6620     1.8730 c3         1 G08       0.165100
     10 C10          0.3590    -0.7470     4.5580 c3         1 G08      -0.041400
     11 C11         -0.5220    -0.3990     3.3650 c3         1 G08       0.099800
     12 C12         -0.4060    -0.8180     5.8720 c3         1 G08      -0.306600
     13 N1           0.3040    -0.3320     2.0890 n4         1 G08      -0.587800
     14 O1           1.6470    -0.1710     7.2140 o          1 G08      -0.744867
     15 O2          -0.2380    -1.2690     8.3630 o          1 G08      -0.744867
     16 O3           1.1800    -2.5590     6.8130 o          1 G08      -0.744867
     17 S1           0.6620    -1.2510     7.2100 s6         1 G08       1.434800
     18 H1           2.5800    -2.4100    -3.2150 ha         1 G08       0.145000
     19 H2           0.3330    -3.1680    -2.4860 ha         1 G08       0.146500
     20 H3           4.1030    -1.3080    -1.5960 ha         1 G08       0.146500
     21 H4          -0.3940    -2.8260    -0.1470 ha         1 G08       0.141500
     22 H5           3.3860    -0.9620     0.7450 ha         1 G08       0.141500
     23 H6          -1.3390    -0.8560     0.8440 hx         1 G08       0.106200
     24 H7          -1.1020     0.9120     1.0900 hx         1 G08       0.106200
     25 H8           0.0090    -0.0030     0.0090 hx         1 G08       0.106200
     26 H9           1.9770     0.5450     3.0660 hx         1 G08       0.106200
     27 H10          1.9140     0.8020     1.2850 hx         1 G08       0.106200
     28 H11          0.8030     1.7170     2.3670 hx         1 G08       0.106200
     29 H12          0.3140    -2.4450     2.1910 hx         1 G08       0.094700
     30 H13          1.8670    -1.6790     2.5560 hx         1 G08       0.094700
     31 H14          0.8330    -1.7170     4.3640 hc         1 G08       0.053700
     32 H15          1.1760    -0.0190     4.6440 hc         1 G08       0.053700
     33 H16         -1.0120     0.5730     3.4830 hx         1 G08       0.107700
     34 H17         -1.2820    -1.1700     3.2040 hx         1 G08       0.107700
     35 H18         -1.1910    -1.5790     5.8350 h1         1 G08       0.086200
     36 H19         -0.8550     0.1440     6.1350 h1         1 G08       0.086200
@<TRIPOS>BOND
     1     1     2 ar  
     2     1     3 ar  
     3     2     4 ar  
     4     3     5 ar  
     5     4     6 ar  
     6     5     6 ar  
     7     6     9 1   
     8     7    13 1   
     9     8    13 1   
    10     9    13 1   
    11    10    11 1   
    12    10    12 1   
    13    11    13 1   
    14    12    17 1   
    15    14    17 1   
    16    15    17 1   
    17    16    17 1   
    18     1    18 1   
    19     2    19 1   
    20     3    20 1   
    21     4    21 1   
    22     5    22 1   
    23     7    23 1   
    24     7    24 1   
    25     7    25 1   
    26     8    26 1   
    27     8    27 1   
    28     8    28 1   
    29     9    29 1   
    30     9    30 1   
    31    10    31 1   
    32    10    32 1   
    33    11    33 1   
    34    11    34 1   
    35    12    35 1   
    36    12    36 1   
@<TRIPOS>SUBSTRUCTURE
     1 G08         1 TEMP              0 ****  ****    0 ROOT
