@<TRIPOS>MOLECULE
G09
   30    32     1     0     0
SMALL
bcc


@<TRIPOS>ATOM
      1 C1          -0.5120     0.7900    -0.5630 c3         1 G09      -0.086400
      2 C2          -2.7180     1.8980    -1.0220 c3         1 G09      -0.093900
      3 C3          -0.9910     1.7200    -2.8450 c3         1 G09      -0.093900
      4 C4          -2.6070    -0.5840    -0.6770 c3         1 G09      -0.097900
      5 C5          -0.8870    -0.7620    -2.4960 c3         1 G09      -0.097900
      6 C6          -3.0920     0.3430    -2.9630 c3         1 G09      -0.132400
      7 C7          -2.0180     0.7690    -0.2420 c3         1 G09      -0.055200
      8 C8          -0.2860     0.5890    -2.0730 c3         1 G09      -0.055200
      9 C9          -2.4970     1.6920    -2.5310 c3         1 G09       0.144200
     10 C10         -2.3950    -0.7910    -2.1890 c3         1 G09       0.169800
     11 N1          -3.1710     2.7840    -3.2770 nz         1 G09      -0.846600
     12 O1          -2.9430    -2.0460    -2.5650 oh         1 G09      -0.567800
     13 H1          -0.0760     1.7440    -0.2430 hc         1 G09       0.069700
     14 H2           0.0000     0.0000     0.0000 hc         1 G09       0.069700
     15 H3          -3.7890     1.8990    -0.7850 hc         1 G09       0.065700
     16 H4          -2.3160     2.8680    -0.7020 hc         1 G09       0.065700
     17 H5          -0.5540     2.6860    -2.5610 hc         1 G09       0.065700
     18 H6          -0.8180     1.5920    -3.9210 hc         1 G09       0.065700
     19 H7          -2.1400    -1.4030    -0.1150 hc         1 G09       0.076700
     20 H8          -3.6770    -0.6320    -0.4370 hc         1 G09       0.076700
     21 H9          -0.7160    -0.9370    -3.5660 hc         1 G09       0.076700
     22 H10         -0.3810    -1.5870    -1.9770 hc         1 G09       0.076700
     23 H11         -4.1740     0.3090    -2.7750 hc         1 G09       0.071200
     24 H12         -2.9710     0.1850    -4.0430 hc         1 G09       0.071200
     25 H13         -2.1710     0.9110     0.8330 hc         1 G09       0.091200
     26 H14          0.7870     0.6030    -2.2920 hc         1 G09       0.091200
     27 H15         -2.4850     3.4390    -3.6670 hn         1 G09       0.454800
     28 H16         -3.7990     3.3130    -2.6630 hn         1 G09       0.454800
     29 H17         -3.7270     2.4090    -4.0520 hn         1 G09       0.454800
     30 H18         -2.7930    -2.1440    -3.5200 ho         1 G09       0.416000
@<TRIPOS>BOND
     1     1     7 1   
     2     1     8 1   
     3     2     7 1   
     4     2     9 1   
     5     3     8 1   
     6     3     9 1   
     7     4     7 1   
     8     4    10 1   
     9     5     8 1   
    10     5    10 1   
    11     6     9 1   
    12     6    10 1   
    13     9    11 1   
    14    10    12 1   
    15     1    13 1   
    16     1    14 1   
    17     2    15 1   
    18     2    16 1   
    19     3    17 1   
    20     3    18 1   
    21     4    19 1   
    22     4    20 1   
    23     5    21 1   
    24     5    22 1   
    25     6    23 1   
    26     6    24 1   
    27     7    25 1   
    28     8    26 1   
    29    11    27 1   
    30    11    28 1   
    31    11    29 1   
    32    12    30 1   
@<TRIPOS>SUBSTRUCTURE
     1 G09         1 TEMP              0 ****  ****    0 ROOT
