@<TRIPOS>MOLECULE
G10
   42    42     1     0     0
SMALL
bcc


@<TRIPOS>ATOM
      1 C1          -0.1780     1.2860     5.1910 ca         1 G10      -0.097000
      2 C2           0.5090     1.7500     6.3130 ca         1 G10      -0.097000
      3 C3           1.3000    -0.6210     5.0730 ca         1 G10      -0.097000
      4 C4           1.9880    -0.1570     6.1940 ca         1 G10      -0.097000
      5 C5           0.2170     0.1010     4.5720 ca         1 G10      -0.123300
      6 C6           1.5930     1.0280     6.8140 ca         1 G10      -0.123300
      7 C7          -1.7550    -1.8290     4.9820 c3         1 G10       0.087433
      8 C8          -2.8950     0.1010     3.9090 c3         1 G10       0.087433
      9 C9          -2.3260    -1.9100     2.5650 c3         1 G10       0.087433
     10 C10          0.5270     0.4240     9.3230 c3         1 G10       0.087433
     11 C11          2.8140    -0.5480     9.2920 c3         1 G10       0.087433
     12 C12          2.3860     1.5830    10.4960 c3         1 G10       0.087433
     13 C13         -0.5220    -0.3990     3.3650 c3         1 G10       0.162100
     14 C14          2.3290     1.5260     8.0120 c3         1 G10       0.162100
     15 N1          -1.8750    -1.0090     3.7050 n4         1 G10      -0.603800
     16 N2           2.0210     0.7630     9.2540 n4         1 G10      -0.603800
     17 H1          -1.0220     1.8540     4.8080 ha         1 G10       0.160000
     18 H2           0.1960     2.6750     6.7880 ha         1 G10       0.160000
     19 H3           1.6150    -1.5450     4.5960 ha         1 G10       0.160000
     20 H4           2.8310    -0.7260     6.5790 ha         1 G10       0.160000
     21 H5          -1.0180    -2.6150     4.8060 hx         1 G10       0.105144
     22 H6          -1.4310    -1.1590     5.7800 hx         1 G10       0.105144
     23 H7          -2.7370    -2.2530     5.2000 hx         1 G10       0.105144
     24 H8          -2.9590     0.6700     2.9800 hx         1 G10       0.105144
     25 H9          -3.8520    -0.3650     4.1510 hx         1 G10       0.105144
     26 H10         -2.5460     0.7290     4.7310 hx         1 G10       0.105144
     27 H11         -2.4030    -1.2970     1.6650 hx         1 G10       0.105144
     28 H12         -1.5770    -2.6950     2.4420 hx         1 G10       0.105144
     29 H13         -3.2960    -2.3320     2.8360 hx         1 G10       0.105144
     30 H14         -0.0300     1.3620     9.2950 hx         1 G10       0.105144
     31 H15          0.2860    -0.2020     8.4610 hx         1 G10       0.105144
     32 H16          0.3490    -0.1100    10.2580 hx         1 G10       0.105144
     33 H17          3.8760    -0.2980     9.2430 hx         1 G10       0.105144
     34 H18          2.5750    -1.0560    10.2280 hx         1 G10       0.105144
     35 H19          2.5120    -1.1480     8.4310 hx         1 G10       0.105144
     36 H20          3.4500     1.8210    10.4390 hx         1 G10       0.105144
     37 H21          1.7810     2.4920    10.4870 hx         1 G10       0.105144
     38 H22          2.1670     0.9740    11.3750 hx         1 G10       0.105144
     39 H23         -0.7130     0.4120     2.6540 hx         1 G10       0.114700
     40 H24          0.0500    -1.1730     2.8430 hx         1 G10       0.114700
     41 H25          3.4170     1.4620     7.8740 hx         1 G10       0.114700
     42 H26          2.0880     2.5750     8.2280 hx         1 G10       0.114700
@<TRIPOS>BOND
     1     1     2 ar  
     2     1     5 ar  
     3     2     6 ar  
     4     3     4 ar  
     5     3     5 ar  
     6     4     6 ar  
     7     5    13 1   
     8     6    14 1   
     9     7    15 1   
    10     8    15 1   
    11     9    15 1   
    12    10    16 1   
    13    11    16 1   
    14    12    16 1   
    15    13    15 1   
    16    14    16 1   
    17     1    17 1   
    18     2    18 1   
    19     3    19 1   
    20     4    20 1   
    21     7    21 1   
    22     7    22 1   
    23     7    23 1   
    24     8    24 1   
    25     8    25 1   
    26     8    26 1   
    27     9    27 1   
    28     9    28 1   
    29     9    29 1   
    30    10    30 1   
    31    10    31 1   
    32    10    32 1   
    33    11    33 1   
    34    11    34 1   
    35    11    35 1   
    36    12    36 1   
    37    12    37 1   
    38    12    38 1   
    39    13    39 1   
    40    13    40 1   
    41    14    41 1   
    42    14    42 1   
@<TRIPOS>SUBSTRUCTURE
     1 G10         1 TEMP              0 ****  ****    0 ROOT
