@<TRIPOS>MOLECULE
G11
   20    19     1     0     0
SMALL
bcc


@<TRIPOS>ATOM
      1 C1          -0.0380    -0.2220     1.0730 c3         1 G11      -0.110100
      2 C2           2.3550     0.4720     1.2570 c3         1 G11      -0.110100
      3 C3           1.7850    -1.9340     0.8920 c3         1 G11      -0.110100
      4 C4           1.3350    -0.8140     3.1330 c3         1 G11       0.098800
      5 C5           1.3450    -0.6400     1.5990 c3         1 G11      -0.071000
      6 N1           2.6530    -1.2360     3.6660 nz         1 G11      -0.836600
      7 H1          -0.7930    -0.9850     1.2940 hc         1 G11       0.058922
      8 H2          -0.3680     0.7150     1.5370 hc         1 G11       0.058922
      9 H3          -0.0300    -0.0590    -0.0100 hc         1 G11       0.058922
     10 H4           3.3600     0.2170     1.6140 hc         1 G11       0.058922
     11 H5           2.0680     1.4230     1.7190 hc         1 G11       0.058922
     12 H6           2.4180     0.6330     0.1750 hc         1 G11       0.058922
     13 H7           2.7680    -2.2720     1.2350 hc         1 G11       0.058922
     14 H8           1.0780    -2.7480     1.0850 hc         1 G11       0.058922
     15 H9           1.8380    -1.7910    -0.1940 hc         1 G11       0.058922
     16 H10          0.6190    -1.5810     3.4450 hx         1 G11       0.111700
     17 H11          1.0850     0.1240     3.6410 hx         1 G11       0.111700
     18 H12          2.5410    -1.8660     4.4670 hn         1 G11       0.461467
     19 H13          3.2000    -0.4250     3.9760 hn         1 G11       0.461467
     20 H14          3.1980    -1.7290     2.9500 hn         1 G11       0.461467
@<TRIPOS>BOND
     1     1     5 1   
     2     2     5 1   
     3     3     5 1   
     4     4     5 1   
     5     4     6 1   
     6     1     7 1   
     7     1     8 1   
     8     1     9 1   
     9     2    10 1   
    10     2    11 1   
    11     2    12 1   
    12     3    13 1   
    13     3    14 1   
    14     3    15 1   
    15     4    16 1   
    16     4    17 1   
    17     6    18 1   
    18     6    19 1   
    19     6    20 1   
@<TRIPOS>SUBSTRUCTURE
     1 G11         1 TEMP              0 ****  ****    0 ROOT
