@<TRIPOS>MOLECULE
G12
   50    52     1     0     0
SMALL
bcc


@<TRIPOS>ATOM
      1 C1          -0.1570     0.3040    -1.0410 c3         1 G12      -0.086650
      2 C2          -1.9140    -1.4540    -1.3740 c3         1 G12      -0.086650
      3 C3           0.5660     0.0360    -3.4310 c3         1 G12      -0.086650
      4 C4          -1.1950    -1.7240    -3.7610 c3         1 G12      -0.086650
      5 C5          -1.6250     0.0590    -1.4500 c3         1 G12      -0.073950
      6 C6           0.7960    -0.4600    -1.9860 c3         1 G12      -0.073950
      7 C7          -0.9720    -2.2270    -2.3190 c3         1 G12      -0.073950
      8 C8          -0.9010    -0.2110    -3.8510 c3         1 G12      -0.073950
      9 C9          -1.8010     0.5860    -2.8880 c3         1 G12       0.133500
     10 C10          0.5050    -1.9720    -1.9610 c3         1 G12       0.133500
     11 C11         -3.8500    -0.8180    -2.8110 c3         1 G12       0.085767
     12 C12         -3.3430     0.5300    -4.8360 c3         1 G12       0.085767
     13 C13         -4.0370     1.6590    -2.7330 c3         1 G12       0.085767
     14 C14          0.3860    -1.5850     0.4910 c3         1 G12       0.085767
     15 C15          2.3310    -2.7860    -0.4840 c3         1 G12       0.085767
     16 C16          0.1000    -3.8790    -0.4190 c3         1 G12       0.085767
     17 N1          -3.2250     0.4910    -3.3070 n4         1 G12      -0.598800
     18 N2           0.8230    -2.5420    -0.6240 n4         1 G12      -0.598800
     19 H1           0.0660     1.3780    -1.0840 hc         1 G12       0.076450
     20 H2           0.0000     0.0010     0.0000 hc         1 G12       0.076450
     21 H3          -1.7960    -1.8030    -0.3420 hc         1 G12       0.076450
     22 H4          -2.9570    -1.6610    -1.6390 hc         1 G12       0.076450
     23 H5           0.8020     1.1050    -3.5020 hc         1 G12       0.076450
     24 H6           1.2440    -0.4840    -4.1190 hc         1 G12       0.076450
     25 H7          -0.5360    -2.2690    -4.4490 hc         1 G12       0.076450
     26 H8          -2.2200    -1.9420    -4.0820 hc         1 G12       0.076450
     27 H9          -2.2860     0.6000    -0.7640 hc         1 G12       0.088700
     28 H10          1.8370    -0.2670    -1.7000 hc         1 G12       0.088700
     29 H11         -1.1950    -3.2990    -2.2720 hc         1 G12       0.088700
     30 H12         -1.0440     0.1350    -4.8820 hc         1 G12       0.088700
     31 H13         -1.5590     1.6540    -2.9350 hx         1 G12       0.100700
     32 H14          1.1640    -2.5000    -2.6610 hx         1 G12       0.100700
     33 H15         -4.8890    -0.8390    -3.1430 hx         1 G12       0.105311
     34 H16         -3.2830    -1.6450    -3.2440 hx         1 G12       0.105311
     35 H17         -3.7860    -0.8270    -1.7210 hx         1 G12       0.105311
     36 H18         -4.4020     0.4580    -5.0900 hx         1 G12       0.105311
     37 H19         -2.9200     1.4760    -5.1800 hx         1 G12       0.105311
     38 H20         -2.7840    -0.3180    -5.2360 hx         1 G12       0.105311
     39 H21         -5.0700     1.5430    -3.0680 hx         1 G12       0.105311
     40 H22         -3.9700     1.6090    -1.6450 hx         1 G12       0.105311
     41 H23         -3.6030     2.5860    -3.1110 hx         1 G12       0.105311
     42 H24          0.6400    -2.0470     1.4470 hx         1 G12       0.105311
     43 H25          0.9240    -0.6450     0.3540 hx         1 G12       0.105311
     44 H26         -0.6920    -1.4370     0.4010 hx         1 G12       0.105311
     45 H27          2.5110    -3.2020     0.5090 hx         1 G12       0.105311
     46 H28          2.6300    -3.4890    -1.2640 hx         1 G12       0.105311
     47 H29          2.8370    -1.8270    -0.6050 hx         1 G12       0.105311
     48 H30          0.3650    -4.2540     0.5710 hx         1 G12       0.105311
     49 H31         -0.9740    -3.6930    -0.4940 hx         1 G12       0.105311
     50 H32          0.4350    -4.5640    -1.2000 hx         1 G12       0.105311
@<TRIPOS>BOND
     1     1     5 1   
     2     1     6 1   
     3     2     5 1   
     4     2     7 1   
     5     3     6 1   
     6     3     8 1   
     7     4     7 1   
     8     4     8 1   
     9     5     9 1   
    10     6    10 1   
    11     7    10 1   
    12     8     9 1   
    13     9    17 1   
    14    10    18 1   
    15    11    17 1   
    16    12    17 1   
    17    13    17 1   
    18    14    18 1   
    19    15    18 1   
    20    16    18 1   
    21     1    19 1   
    22     1    20 1   
    23     2    21 1   
    24     2    22 1   
    25     3    23 1   
    26     3    24 1   
    27     4    25 1   
    28     4    26 1   
    29     5    27 1   
    30     6    28 1   
    31     7    29 1   
    32     8    30 1   
    33     9    31 1   
    34    10    32 1   
    35    11    33 1   
    36    11    34 1   
    37    11    35 1   
    38    12    36 1   
    39    12    37 1   
    40    12    38 1   
    41    13    39 1   
    42    13    40 1   
    43    13    41 1   
    44    14    42 1   
    45    14    43 1   
    46    14    44 1   
    47    15    45 1   
    48    15    46 1   
    49    15    47 1   
    50    16    48 1   
    51    16    49 1   
    52    16    50 1   
@<TRIPOS>SUBSTRUCTURE
     1 G12         1 TEMP              0 ****  ****    0 ROOT
