@<TRIPOS>MOLECULE
G13
   28    29     1     0     0
SMALL
bcc


@<TRIPOS>ATOM
      1 C1           0.7840    -0.5200     0.5400 cc         1 G13      -0.121000
      2 C2           2.8800    -1.7060     0.5720 cc         1 G13      -0.121000
      3 C3           1.4270     0.2120    -2.2000 cd         1 G13      -0.121000
      4 C4           2.6520    -1.8590    -2.3230 cd         1 G13      -0.121000
      5 C5           0.7100    -0.6750     1.9170 cd         1 G13      -0.013300
      6 C6           2.7530    -1.8320     1.9480 cd         1 G13      -0.013300
      7 C7           1.5420     0.3270    -3.5780 cc         1 G13      -0.013300
      8 C8           2.7370    -1.6910    -3.6980 cc         1 G13      -0.013300
      9 C9           1.8830    -1.0420    -0.1350 cc         1 G13       0.034000
     10 C10          1.9890    -0.8940    -1.5700 cd         1 G13       0.034000
     11 C11          1.5790    -1.4650     4.0220 c3         1 G13      -0.043400
     12 C12          2.2900    -0.4680    -5.7280 c3         1 G13      -0.043400
     13 N1           1.6850    -1.3190     2.5740 na         1 G13       0.056900
     14 N2           2.1860    -0.6170    -4.2790 na         1 G13       0.056900
     15 H1          -0.0090     0.0030     0.0130 ha         1 G13       0.203000
     16 H2           3.7490    -2.1240     0.0710 ha         1 G13       0.203000
     17 H3           0.9040     0.9800    -1.6370 ha         1 G13       0.203000
     18 H4           3.1000    -2.7320    -1.8590 ha         1 G13       0.203000
     19 H5          -0.1150    -0.2950     2.5070 h4         1 G13       0.231000
     20 H6           3.4900    -2.3350     2.5620 h4         1 G13       0.231000
     21 H7           1.1300     1.1600    -4.1340 h4         1 G13       0.231000
     22 H8           3.2360    -2.4010    -4.3460 h4         1 G13       0.231000
     23 H9           1.0480    -2.3950     4.2460 h1         1 G13       0.117700
     24 H10          2.5730    -1.4950     4.4760 h1         1 G13       0.117700
     25 H11          1.0290    -0.6170     4.4390 h1         1 G13       0.117700
     26 H12          3.2030     0.0860    -5.9620 h1         1 G13       0.117700
     27 H13          2.3260    -1.4490    -6.2100 h1         1 G13       0.117700
     28 H14          1.4200     0.0760    -6.1060 h1         1 G13       0.117700
@<TRIPOS>BOND
     1     1     5 2   
     2     1     9 1   
     3     2     6 2   
     4     2     9 1   
     5     3     7 2   
     6     3    10 1   
     7     4     8 2   
     8     4    10 1   
     9     5    13 1   
    10     6    13 1   
    11     7    14 1   
    12     8    14 1   
    13     9    10 2   
    14    11    13 1   
    15    12    14 1   
    16     1    15 1   
    17     2    16 1   
    18     3    17 1   
    19     4    18 1   
    20     5    19 1   
    21     6    20 1   
    22     7    21 1   
    23     8    22 1   
    24    11    23 1   
    25    11    24 1   
    26    11    25 1   
    27    12    26 1   
    28    12    27 1   
    29    12    28 1   
@<TRIPOS>SUBSTRUCTURE
     1 G13         1 TEMP              0 ****  ****    0 ROOT
